<?xml version="1.0" encoding="UTF-8"?>

<!-- generated on Mon Jan 25 22:01:17 2021 by Eclipse SUMO duarouter Version 1.8.0
<configuration xmlns:xsi="http://www.w3.org/2001/XMLSchema-instance" xsi:noNamespaceSchemaLocation="http://sumo.dlr.de/xsd/duarouterConfiguration.xsd">

    <input>
        <net-file value="osm.net.xml"/>
        <route-files value="osm.passengerIntervened.trips.xml"/>
    </input>

    <output>
        <output-file value="osm.passengerIntervened.trips.xml.tmp"/>
        <write-trips value="true"/>
    </output>

    <time>
        <begin value="0"/>
        <end value="10800"/>
    </time>

    <report>
        <no-warnings value="true"/>
        <ignore-errors value="true"/>
        <no-step-log value="true"/>
    </report>

</configuration>
-->

<routes xmlns:xsi="http://www.w3.org/2001/XMLSchema-instance" xsi:noNamespaceSchemaLocation="http://sumo.dlr.de/xsd/routes_file.xsd">
    <vType id="veh_passenger" vClass="passenger"/>
    <trip id="veh0" type="veh_passenger" depart="1910.00" departLane="best" departSpeed="max" from="-13297277#2" to="-165772567#0"/>
    <trip id="veh1" type="veh_passenger" depart="1911.00" departLane="best" departSpeed="max" from="-150913648" to="13294774#2"/>
    <trip id="veh2" type="veh_passenger" depart="1912.00" departLane="best" departSpeed="max" from="-13463116#1" to="13419256#1"/>
    <trip id="veh3" type="veh_passenger" depart="1913.00" departLane="best" departSpeed="max" from="176996128" to="-13281948#0"/>
    <trip id="veh4" type="veh_passenger" depart="1914.00" departLane="best" departSpeed="max" from="159759774" to="-168367856"/>
    <trip id="veh5" type="veh_passenger" depart="1915.00" departLane="best" departSpeed="max" from="622928277" to="-167920372#0"/>
    <trip id="veh6" type="veh_passenger" depart="1916.00" departLane="best" departSpeed="max" from="165665944#0" to="13321148#5"/>
    <trip id="veh7" type="veh_passenger" depart="1917.00" departLane="best" departSpeed="max" from="-524962751" to="13333477"/>
    <trip id="veh8" type="veh_passenger" depart="1918.00" departLane="best" from="13440951#0" to="397474478#1"/>
    <trip id="veh9" type="veh_passenger" depart="1919.00" departLane="best" departSpeed="max" from="159763307#0" to="-13312215"/>
    <trip id="veh10" type="veh_passenger" depart="1920.00" departLane="best" departSpeed="max" from="-165790331" to="-13336536#0"/>
    <trip id="veh11" type="veh_passenger" depart="1921.00" departLane="best" departSpeed="max" from="-13373410" to="-165774461"/>
    <trip id="veh12" type="veh_passenger" depart="1922.00" departLane="best" from="-398784749" to="-397540645"/>
    <trip id="veh13" type="veh_passenger" depart="1923.00" departLane="best" departSpeed="max" from="-165665945#2" to="665212183#1"/>
    <trip id="veh14" type="veh_passenger" depart="1924.00" departLane="best" departSpeed="max" from="13432018#0" to="-13438582#0"/>
    <trip id="veh15" type="veh_passenger" depart="1925.00" departLane="best" departSpeed="max" from="-13431381" to="-398218636"/>
    <trip id="veh16" type="veh_passenger" depart="1926.00" departLane="best" departSpeed="max" from="165880079" to="-159606584"/>
    <trip id="veh17" type="veh_passenger" depart="1927.00" departLane="best" departSpeed="max" from="-176054499#3" to="-165568127#0"/>
    <trip id="veh18" type="veh_passenger" depart="1928.00" departLane="best" departSpeed="max" from="604159985#0" to="398233623#1"/>
    <trip id="veh19" type="veh_passenger" depart="1929.00" departLane="best" departSpeed="max" from="404977072" to="-742089606"/>
    <trip id="veh20" type="veh_passenger" depart="1930.00" departLane="best" departSpeed="max" from="-159608569#2" to="13348378"/>
    <trip id="veh21" type="veh_passenger" depart="1931.00" departLane="best" departSpeed="max" from="13408637#0" to="398727196#1"/>
    <trip id="veh22" type="veh_passenger" depart="1932.00" departLane="best" departSpeed="max" from="13326227" to="-13351330"/>
    <trip id="veh23" type="veh_passenger" depart="1933.00" departLane="best" departSpeed="max" from="-13376660#12" to="13401063#1"/>
    <trip id="veh25" type="veh_passenger" depart="1935.00" departLane="best" departSpeed="max" from="-13291245#5" to="150913662"/>
    <trip id="veh26" type="veh_passenger" depart="1936.00" departLane="best" departSpeed="max" from="13352725#0" to="-165568113#0"/>
    <trip id="veh27" type="veh_passenger" depart="1937.00" departLane="best" from="-13380898#3" to="-604159985#0"/>
    <trip id="veh28" type="veh_passenger" depart="1938.00" departLane="best" departSpeed="max" from="622928277" to="398231694#3"/>
    <trip id="veh29" type="veh_passenger" depart="1939.00" departLane="best" departSpeed="max" from="13321499#0" to="-13443784"/>
    <trip id="veh30" type="veh_passenger" depart="1940.00" departLane="best" departSpeed="max" from="13458259#0" to="13384707#1"/>
    <trip id="veh31" type="veh_passenger" depart="1941.00" departLane="best" departSpeed="max" from="165790321#0" to="13324140#1"/>
    <trip id="veh32" type="veh_passenger" depart="1942.00" departLane="best" departSpeed="max" from="13345481" to="-113411288#2"/>
    <trip id="veh33" type="veh_passenger" depart="1943.00" departLane="best" departSpeed="max" from="-13295679" to="622928679"/>
    <trip id="veh34" type="veh_passenger" depart="1944.00" departLane="best" departSpeed="max" from="-13328127#5" to="398233623#1"/>
    <trip id="veh35" type="veh_passenger" depart="1945.00" departLane="best" departSpeed="max" from="-13361072" to="124550370"/>
    <trip id="veh36" type="veh_passenger" depart="1946.00" departLane="best" departSpeed="max" from="165790320" to="165774466"/>
    <trip id="veh37" type="veh_passenger" depart="1947.00" departLane="best" departSpeed="max" from="13303520" to="13332273#5"/>
    <trip id="veh38" type="veh_passenger" depart="1948.00" departLane="best" departSpeed="max" from="398239900" to="-4341237#0"/>
    <trip id="veh39" type="veh_passenger" depart="1949.00" departLane="best" departSpeed="max" from="13361517#0" to="159608029#3"/>
    <trip id="veh40" type="veh_passenger" depart="1950.00" departLane="best" departSpeed="max" from="-167920964#7" to="859343581"/>
    <trip id="veh41" type="veh_passenger" depart="1951.00" departLane="best" departSpeed="max" from="124550393" to="13307839#7"/>
    <trip id="veh42" type="veh_passenger" depart="1952.00" departLane="best" departSpeed="max" from="148455912#0" to="-136732119#0"/>
    <trip id="veh43" type="veh_passenger" depart="1953.00" departLane="best" departSpeed="max" from="13300322" to="165790331"/>
    <trip id="veh44" type="veh_passenger" depart="1954.00" departLane="best" departSpeed="max" from="-13453431" to="-13362258#4"/>
    <trip id="veh45" type="veh_passenger" depart="1955.00" departLane="best" from="165665922#5" to="13443119#3"/>
    <trip id="veh46" type="veh_passenger" depart="1956.00" departLane="best" departSpeed="max" from="-13370598#4" to="-398397181#0"/>
    <trip id="veh47" type="veh_passenger" depart="1957.00" departLane="best" departSpeed="max" from="398158787#0" to="-160068593#0"/>
    <trip id="veh48" type="veh_passenger" depart="1958.00" departLane="best" departSpeed="max" from="13280428#0" to="-4341234"/>
    <trip id="veh49" type="veh_passenger" depart="1959.00" departLane="best" departSpeed="max" from="-159756854#5" to="607194248#3"/>
    <trip id="veh50" type="veh_passenger" depart="1960.00" departLane="best" departSpeed="max" from="398158787#0" to="13332273#5"/>
    <trip id="veh51" type="veh_passenger" depart="1961.00" departLane="best" departSpeed="max" from="879314603#0" to="30968402"/>
    <trip id="veh52" type="veh_passenger" depart="1962.00" departLane="best" departSpeed="max" from="-13433875" to="124550370"/>
    <trip id="veh53" type="veh_passenger" depart="1963.00" departLane="best" departSpeed="max" from="-673269355" to="-13322337#0"/>
    <trip id="veh54" type="veh_passenger" depart="1964.00" departLane="best" from="165884157#0" to="-706526061#0"/>
    <trip id="veh55" type="veh_passenger" depart="1965.00" departLane="best" departSpeed="max" from="622928277" to="859343581"/>
    <trip id="veh56" type="veh_passenger" depart="1966.00" departLane="best" departSpeed="max" from="165568090#0" to="-13427041"/>
    <trip id="veh57" type="veh_passenger" depart="1967.00" departLane="best" departSpeed="max" from="-13328127#5" to="13367893#0"/>
    <trip id="veh58" type="veh_passenger" depart="1968.00" departLane="best" from="384175007#0" to="-13431346#0"/>
    <trip id="veh60" type="veh_passenger" depart="1970.00" departLane="best" departSpeed="max" from="150913650" to="-159608581#1"/>
    <trip id="veh61" type="veh_passenger" depart="1971.00" departLane="best" departSpeed="max" from="398400438" to="-159763305#0"/>
    <trip id="veh62" type="veh_passenger" depart="1972.00" departLane="best" departSpeed="max" from="13441117#0" to="-4341232#0"/>
    <trip id="veh63" type="veh_passenger" depart="1973.00" departLane="best" departSpeed="max" from="13335013#0" to="631737212#2"/>
    <trip id="veh64" type="veh_passenger" depart="1974.00" departLane="best" departSpeed="max" from="-666606689" to="13441550"/>
    <trip id="veh65" type="veh_passenger" depart="1975.00" departLane="best" departSpeed="max" from="-176054499#3" to="165560843#0"/>
    <trip id="veh66" type="veh_passenger" depart="1976.00" departLane="best" departSpeed="max" from="13291625#0" to="867901249#1"/>
    <trip id="veh67" type="veh_passenger" depart="1977.00" departLane="best" departSpeed="max" from="-13349551#1" to="-136732119#0"/>
    <trip id="veh68" type="veh_passenger" depart="1978.00" departLane="best" from="49288749" to="398239919#0"/>
    <trip id="veh69" type="veh_passenger" depart="1979.00" departLane="best" departSpeed="max" from="-404988216#1" to="-13431346#0"/>
    <trip id="veh70" type="veh_passenger" depart="1980.00" departLane="best" departSpeed="max" from="859649355" to="13422197"/>
    <trip id="veh72" type="veh_passenger" depart="1982.00" departLane="best" departSpeed="max" from="55336160#0" to="-13406851"/>
    <trip id="veh73" type="veh_passenger" depart="1983.00" departLane="best" departSpeed="max" from="-13376355#6" to="13333532#4"/>
    <trip id="veh74" type="veh_passenger" depart="1984.00" departLane="best" departSpeed="max" from="13431346#0" to="150913658#8"/>
    <trip id="veh75" type="veh_passenger" depart="1985.00" departLane="best" departSpeed="max" from="13452731#0" to="-165568098#0"/>
    <trip id="veh76" type="veh_passenger" depart="1986.00" departLane="best" departSpeed="max" from="400101938" to="365598527"/>
    <trip id="veh77" type="veh_passenger" depart="1987.00" departLane="best" from="-13281956#11" to="165776323#3"/>
    <trip id="veh78" type="veh_passenger" depart="1988.00" departLane="best" departSpeed="max" from="13375137#0" to="-482031895#0"/>
    <trip id="veh79" type="veh_passenger" depart="1989.00" departLane="best" departSpeed="max" from="-13350099" to="398364652#1"/>
    <trip id="veh80" type="veh_passenger" depart="1990.00" departLane="best" departSpeed="max" from="13367797" to="301869716#2"/>
    <trip id="veh81" type="veh_passenger" depart="1991.00" departLane="best" departSpeed="max" from="-165884183#1" to="404964737#0"/>
    <trip id="veh82" type="veh_passenger" depart="1992.00" departLane="best" departSpeed="max" from="398158787#0" to="404956265"/>
    <trip id="veh83" type="veh_passenger" depart="1993.00" departLane="best" departSpeed="max" from="-159756854#5" to="-13367921"/>
    <trip id="veh84" type="veh_passenger" depart="1994.00" departLane="best" from="398362513#1" to="-398414286"/>
    <trip id="veh85" type="veh_passenger" depart="1995.00" departLane="best" departSpeed="max" from="-13417815" to="622928679"/>
    <trip id="veh86" type="veh_passenger" depart="1996.00" departLane="best" departSpeed="max" from="398253258#0" to="-13298600"/>
    <trip id="veh87" type="veh_passenger" depart="1997.00" departLane="best" departSpeed="max" from="-339701909" to="622928679"/>
    <trip id="veh88" type="veh_passenger" depart="1998.00" departLane="best" from="398209500#0" to="173879101#3"/>
    <trip id="veh90" type="veh_passenger" depart="2000.00" departLane="best" departSpeed="max" from="218395862" to="-742089606"/>
    <trip id="veh91" type="veh_passenger" depart="2001.00" departLane="best" departSpeed="max" from="168367856" to="-159064686#0"/>
    <trip id="veh92" type="veh_passenger" depart="2002.00" departLane="best" departSpeed="max" from="-13455837" to="-165884171"/>
    <trip id="veh93" type="veh_passenger" depart="2003.00" departLane="best" departSpeed="max" from="13458296#0" to="-398364714#0"/>
    <trip id="veh94" type="veh_passenger" depart="2004.00" departLane="best" departSpeed="max" from="13351330" to="668298720"/>
    <trip id="veh95" type="veh_passenger" depart="2005.00" departLane="best" departSpeed="max" from="623553697#0" to="-165568108#2"/>
    <trip id="veh96" type="veh_passenger" depart="2006.00" departLane="best" departSpeed="max" from="-173876495" to="13383148"/>
    <trip id="veh97" type="veh_passenger" depart="2007.00" departLane="best" departSpeed="max" from="-606824621#2" to="13364338"/>
    <trip id="veh98" type="veh_passenger" depart="2008.00" departLane="best" departSpeed="max" from="165560824#0" to="-13274081#1"/>
    <trip id="veh99" type="veh_passenger" depart="2009.00" departLane="best" departSpeed="max" from="13352725#0" to="150913660"/>
    <trip id="veh100" type="veh_passenger" depart="2010.00" departLane="best" departSpeed="max" from="-301869716#2" to="-165792374"/>
    <trip id="veh101" type="veh_passenger" depart="2011.00" departLane="best" departSpeed="max" from="-682585909" to="-165782978#0"/>
    <trip id="veh102" type="veh_passenger" depart="2012.00" departLane="best" departSpeed="max" from="13367921" to="-113411288#2"/>
    <trip id="veh103" type="veh_passenger" depart="2013.00" departLane="best" departSpeed="max" from="13468856#0" to="-797876019#0"/>
    <trip id="veh104" type="veh_passenger" depart="2014.00" departLane="best" departSpeed="max" from="-149003072#3" to="113414374#1"/>
    <trip id="veh105" type="veh_passenger" depart="2015.00" departLane="best" departSpeed="max" from="168367856" to="-13437675#0"/>
    <trip id="veh106" type="veh_passenger" depart="2016.00" departLane="best" departSpeed="max" from="-352829392#1" to="180599278#2"/>
    <trip id="veh107" type="veh_passenger" depart="2017.00" departLane="best" departSpeed="max" from="-13463116#1" to="-13298600"/>
    <trip id="veh108" type="veh_passenger" depart="2018.00" departLane="best" departSpeed="max" from="13303520" to="372115660#1"/>
    <trip id="veh109" type="veh_passenger" depart="2019.00" departLane="best" departSpeed="max" from="-714471519" to="13405989#3"/>
    <trip id="veh110" type="veh_passenger" depart="2020.00" departLane="best" departSpeed="max" from="159608585#0" to="13289071#2"/>
    <trip id="veh111" type="veh_passenger" depart="2021.00" departLane="best" departSpeed="max" from="13470332" to="-13280428#0"/>
    <trip id="veh112" type="veh_passenger" depart="2022.00" departLane="best" departSpeed="max" from="165792374" to="-13373161#0"/>
    <trip id="veh114" type="veh_passenger" depart="2024.00" departLane="best" from="173879102#1" to="13437989#2"/>
    <trip id="veh116" type="veh_passenger" depart="2026.00" departLane="best" departSpeed="max" from="13367921" to="398727196#1"/>
    <trip id="veh117" type="veh_passenger" depart="2027.00" departLane="best" departSpeed="max" from="13301940" to="-165568059"/>
    <trip id="veh118" type="veh_passenger" depart="2028.00" departLane="best" departSpeed="max" from="13458254" to="165774466"/>
    <trip id="veh119" type="veh_passenger" depart="2029.00" departLane="best" departSpeed="max" from="13445170#0" to="-165665954#3"/>
    <trip id="veh120" type="veh_passenger" depart="2030.00" departLane="best" departSpeed="max" from="-165783268" to="-165568131#0"/>
    <trip id="veh121" type="veh_passenger" depart="2031.00" departLane="best" departSpeed="max" from="13361642#0" to="-13408628#0"/>
    <trip id="veh122" type="veh_passenger" depart="2032.00" departLane="best" departSpeed="max" from="159608582#0" to="148356737"/>
    <trip id="veh123" type="veh_passenger" depart="2033.00" departLane="best" departSpeed="max" from="-688332626" to="13325607#1"/>
    <trip id="veh124" type="veh_passenger" depart="2034.00" departLane="best" departSpeed="max" from="-13470552" to="-4341233#0"/>
    <trip id="veh125" type="veh_passenger" depart="2035.00" departLane="best" departSpeed="max" from="397540645" to="165774466"/>
    <trip id="veh126" type="veh_passenger" depart="2036.00" departLane="best" departSpeed="max" from="-13284710#12" to="-218395857"/>
    <trip id="veh127" type="veh_passenger" depart="2037.00" departLane="best" departSpeed="max" from="384788447" to="706525727"/>
    <trip id="veh128" type="veh_passenger" depart="2038.00" departLane="best" departSpeed="max" from="165782962#0" to="13328127#5"/>
    <trip id="veh129" type="veh_passenger" depart="2039.00" departLane="best" departSpeed="max" from="113411288#0" to="-13300322"/>
    <trip id="veh130" type="veh_passenger" depart="2040.00" departLane="best" departSpeed="max" from="150917459" to="-398400438"/>
    <trip id="veh131" type="veh_passenger" depart="2041.00" departLane="best" departSpeed="max" from="-13299224#2" to="134117953#4"/>
    <trip id="veh132" type="veh_passenger" depart="2042.00" departLane="best" departSpeed="max" from="13293324" to="-13318502#0"/>
    <trip id="veh133" type="veh_passenger" depart="2043.00" departLane="best" departSpeed="max" from="-148215662" to="-165884146#0"/>
    <trip id="veh134" type="veh_passenger" depart="2044.00" departLane="best" departSpeed="max" from="-524962751" to="165560843#1"/>
    <trip id="veh135" type="veh_passenger" depart="2045.00" departLane="best" departSpeed="max" from="-159762594#1" to="-13339421"/>
    <trip id="veh136" type="veh_passenger" depart="2046.00" departLane="best" departSpeed="max" from="13361517#0" to="867901251#1"/>
    <trip id="veh137" type="veh_passenger" depart="2047.00" departLane="best" departSpeed="max" from="13468018#0" to="165568057#2"/>
    <trip id="veh138" type="veh_passenger" depart="2048.00" departLane="best" from="-13463925#2" to="-13294774#0"/>
    <trip id="veh139" type="veh_passenger" depart="2049.00" departLane="best" departSpeed="max" from="165782962#0" to="-13381608"/>
    <trip id="veh140" type="veh_passenger" depart="2050.00" departLane="best" departSpeed="max" from="150917459" to="720169815"/>
    <trip id="veh141" type="veh_passenger" depart="2051.00" departLane="best" departSpeed="max" from="165568059" to="-13333484#0"/>
    <trip id="veh142" type="veh_passenger" depart="2052.00" departLane="best" departSpeed="max" from="165828688#0" to="372115660#1"/>
    <trip id="veh143" type="veh_passenger" depart="2053.00" departLane="best" departSpeed="max" from="-13384799" to="802811755"/>
    <trip id="veh144" type="veh_passenger" depart="2054.00" departLane="best" departSpeed="max" from="-404988216#1" to="13294774#2"/>
    <trip id="veh145" type="veh_passenger" depart="2055.00" departLane="best" from="384140613" to="25377396"/>
    <trip id="veh146" type="veh_passenger" depart="2056.00" departLane="best" departSpeed="max" from="622928279" to="13410775#2"/>
    <trip id="veh147" type="veh_passenger" depart="2057.00" departLane="best" departSpeed="max" from="165560819#0" to="-604159985#0"/>
    <trip id="veh148" type="veh_passenger" depart="2058.00" departLane="best" departSpeed="max" from="651573513#0" to="-165568129#0"/>
    <trip id="veh149" type="veh_passenger" depart="2059.00" departLane="best" departSpeed="max" from="13352725#0" to="124550370"/>
    <trip id="veh150" type="veh_passenger" depart="2060.00" departLane="best" departSpeed="max" from="165665944#0" to="-165568127#0"/>
    <trip id="veh151" type="veh_passenger" depart="2061.00" departLane="best" departSpeed="max" from="398253258#0" to="-159762596"/>
    <trip id="veh152" type="veh_passenger" depart="2062.00" departLane="best" from="-13444904#0" to="-13470891#0"/>
    <trip id="veh153" type="veh_passenger" depart="2063.00" departLane="best" departSpeed="max" from="-365598593" to="398233623#1"/>
    <trip id="veh154" type="veh_passenger" depart="2064.00" departLane="best" departSpeed="max" from="-165776323#3" to="-13288820#0"/>
    <trip id="veh155" type="veh_passenger" depart="2065.00" departLane="best" departSpeed="max" from="-13361072" to="150913662"/>
    <trip id="veh156" type="veh_passenger" depart="2066.00" departLane="best" departSpeed="max" from="165785347#0" to="13463116#1"/>
    <trip id="veh157" type="veh_passenger" depart="2067.00" departLane="best" departSpeed="max" from="13316682#0" to="165880082"/>
    <trip id="veh159" type="veh_passenger" depart="2069.00" departLane="best" departSpeed="max" from="13349026#0" to="-4341242#4"/>
    <trip id="veh160" type="veh_passenger" depart="2070.00" departLane="best" departSpeed="max" from="-301869716#2" to="148215662"/>
    <trip id="veh161" type="veh_passenger" depart="2071.00" departLane="best" departSpeed="max" from="-13454217" to="-13388652#0"/>
    <trip id="veh162" type="veh_passenger" depart="2072.00" departLane="best" departSpeed="max" from="165790321#0" to="-13449651"/>
    <trip id="veh163" type="veh_passenger" depart="2073.00" departLane="best" departSpeed="max" from="742089606" to="13311126#1"/>
    <trip id="veh164" type="veh_passenger" depart="2074.00" departLane="best" departSpeed="max" from="-13371781" to="-13458259#0"/>
    <trip id="veh165" type="veh_passenger" depart="2075.00" departLane="best" departSpeed="max" from="-13441550" to="-13291249"/>
    <trip id="veh166" type="veh_passenger" depart="2076.00" departLane="best" departSpeed="max" from="-165776321#2" to="769195670"/>
    <trip id="veh167" type="veh_passenger" depart="2077.00" departLane="best" departSpeed="max" from="159759774" to="-13395739#0"/>
    <trip id="veh168" type="veh_passenger" depart="2078.00" departLane="best" departSpeed="max" from="13316682#0" to="398231619#3"/>
    <trip id="veh169" type="veh_passenger" depart="2079.00" departLane="best" departSpeed="max" from="13299226#0" to="-607492381#4"/>
    <trip id="veh170" type="veh_passenger" depart="2080.00" departLane="best" departSpeed="max" from="-13324268#6" to="673269349#1"/>
    <trip id="veh172" type="veh_passenger" depart="2082.00" departLane="best" departSpeed="max" from="13448547#0" to="-13319707#0"/>
    <trip id="veh173" type="veh_passenger" depart="2083.00" departLane="best" departSpeed="max" from="13384707#0" to="-165790320"/>
    <trip id="veh174" type="veh_passenger" depart="2084.00" departLane="best" departSpeed="max" from="13431382" to="165880074#7"/>
    <trip id="veh175" type="veh_passenger" depart="2085.00" departLane="best" departSpeed="max" from="13335013#0" to="-691335254"/>
    <trip id="veh176" type="veh_passenger" depart="2086.00" departLane="best" from="-165884166#5" to="13395743#1"/>
    <trip id="veh177" type="veh_passenger" depart="2087.00" departLane="best" departSpeed="max" from="165774481" to="687409238"/>
    <trip id="veh178" type="veh_passenger" depart="2088.00" departLane="best" departSpeed="max" from="-13421465#3" to="-13441117#0"/>
    <trip id="veh179" type="veh_passenger" depart="2089.00" departLane="best" departSpeed="max" from="-13261799" to="-691335254"/>
    <trip id="veh180" type="veh_passenger" depart="2090.00" departLane="best" from="160068593#1" to="148215662"/>
    <trip id="veh181" type="veh_passenger" depart="2091.00" departLane="best" from="159606595#6" to="607194248#3"/>
    <trip id="veh182" type="veh_passenger" depart="2092.00" departLane="best" departSpeed="max" from="13444904#0" to="13433875"/>
    <trip id="veh183" type="veh_passenger" depart="2093.00" departLane="best" departSpeed="max" from="-724343160#1" to="13327894"/>
    <trip id="veh184" type="veh_passenger" depart="2094.00" departLane="best" departSpeed="max" from="-13348378" to="-13434409"/>
    <trip id="veh186" type="veh_passenger" depart="2096.00" departLane="best" departSpeed="max" from="13321499#0" to="13284710#12"/>
    <trip id="veh187" type="veh_passenger" depart="2097.00" departLane="best" departSpeed="max" from="-13314090" to="-518126704#1"/>
    <trip id="veh188" type="veh_passenger" depart="2098.00" departLane="best" departSpeed="max" from="622928279" to="30968402"/>
    <trip id="veh189" type="veh_passenger" depart="2099.00" departLane="best" departSpeed="max" from="609633811#0" to="867901249#1"/>
    <trip id="veh190" type="veh_passenger" depart="2100.00" departLane="best" departSpeed="max" from="-13443119#3" to="13370598#4"/>
    <trip id="veh191" type="veh_passenger" depart="2101.00" departLane="best" departSpeed="max" from="13316682#0" to="-13351330"/>
    <trip id="veh192" type="veh_passenger" depart="2102.00" departLane="best" departSpeed="max" from="159608582#0" to="-165782002#0"/>
    <trip id="veh193" type="veh_passenger" depart="2103.00" departLane="best" from="181978103" to="13332273#5"/>
    <trip id="veh195" type="veh_passenger" depart="2105.00" departLane="best" departSpeed="max" from="859649355" to="13431381"/>
    <trip id="veh196" type="veh_passenger" depart="2106.00" departLane="best" departSpeed="max" from="-706526059#4" to="-13451157#0"/>
    <trip id="veh197" type="veh_passenger" depart="2107.00" departLane="best" departSpeed="max" from="165784239#0" to="13397543"/>
    <trip id="veh198" type="veh_passenger" depart="2108.00" departLane="best" departSpeed="max" from="-13466772#1" to="13330931#1"/>
    <trip id="veh199" type="veh_passenger" depart="2109.00" departLane="best" departSpeed="max" from="124550393" to="13470552"/>
    <trip id="veh200" type="veh_passenger" depart="2110.00" departLane="best" departSpeed="max" from="-159608047#1" to="-13431346#0"/>
    <trip id="veh201" type="veh_passenger" depart="2111.00" departLane="best" departSpeed="max" from="13375137#0" to="-13352725#0"/>
    <trip id="veh202" type="veh_passenger" depart="2112.00" departLane="best" departSpeed="max" from="403844705" to="-742821929"/>
    <trip id="veh203" type="veh_passenger" depart="2113.00" departLane="best" departSpeed="max" from="30968317" to="13291245#5"/>
    <trip id="veh204" type="veh_passenger" depart="2114.00" departLane="best" departSpeed="max" from="30968317" to="769195670"/>
    <trip id="veh205" type="veh_passenger" depart="2115.00" departLane="best" departSpeed="max" from="398251732#0" to="397474478#1"/>
    <trip id="veh206" type="veh_passenger" depart="2116.00" departLane="best" departSpeed="max" from="167009410#0" to="-403551877"/>
    <trip id="veh207" type="veh_passenger" depart="2117.00" departLane="best" departSpeed="max" from="13325029" to="227892106#1"/>
    <trip id="veh208" type="veh_passenger" depart="2118.00" departLane="best" departSpeed="max" from="-165880108#2" to="13371781"/>
    <trip id="veh209" type="veh_passenger" depart="2119.00" departLane="best" from="13359489#4" to="-168367856"/>
    <trip id="veh210" type="veh_passenger" depart="2120.00" departLane="best" departSpeed="max" from="-180599278#2" to="-13452731#0"/>
    <trip id="veh211" type="veh_passenger" depart="2121.00" departLane="best" departSpeed="max" from="13396650#0" to="-159608162#0"/>
    <trip id="veh212" type="veh_passenger" depart="2122.00" departLane="best" departSpeed="max" from="-13317999" to="159608581#4"/>
    <trip id="veh213" type="veh_passenger" depart="2123.00" departLane="best" departSpeed="max" from="176996128" to="-398231674#0"/>
    <trip id="veh214" type="veh_passenger" depart="2124.00" departLane="best" departSpeed="max" from="237019983" to="769195674"/>
    <trip id="veh215" type="veh_passenger" depart="2125.00" departLane="best" departSpeed="max" from="-13311378" to="13293877"/>
    <trip id="veh216" type="veh_passenger" depart="2126.00" departLane="best" departSpeed="max" from="124550393" to="13311378"/>
    <trip id="veh217" type="veh_passenger" depart="2127.00" departLane="best" departSpeed="max" from="165568108#0" to="-398718337#0"/>
    <trip id="veh218" type="veh_passenger" depart="2128.00" departLane="best" departSpeed="max" from="-13417815" to="-879314603#0"/>
    <trip id="veh220" type="veh_passenger" depart="2130.00" departLane="best" from="398052775#0" to="-398218636"/>
    <trip id="veh221" type="veh_passenger" depart="2131.00" departLane="best" from="398239893#1" to="-13308917"/>
    <trip id="veh222" type="veh_passenger" depart="2132.00" departLane="best" departSpeed="max" from="13449651" to="606824621#2"/>
    <trip id="veh223" type="veh_passenger" depart="2133.00" departLane="best" departSpeed="max" from="398239900" to="-623553697#0"/>
    <trip id="veh224" type="veh_passenger" depart="2134.00" departLane="best" departSpeed="max" from="398718337#0" to="-13312215"/>
    <trip id="veh225" type="veh_passenger" depart="2135.00" departLane="best" departSpeed="max" from="-165838930" to="-398158787#0"/>
    <trip id="veh226" type="veh_passenger" depart="2136.00" departLane="best" departSpeed="max" from="13349026#0" to="13350268"/>
    <trip id="veh227" type="veh_passenger" depart="2137.00" departLane="best" departSpeed="max" from="-13436940" to="-13335821"/>
    <trip id="veh228" type="veh_passenger" depart="2138.00" departLane="best" departSpeed="max" from="13441117#0" to="-159759774"/>
    <trip id="veh229" type="veh_passenger" depart="2139.00" departLane="best" departSpeed="max" from="-13406937" to="-742821929"/>
    <trip id="veh230" type="veh_passenger" depart="2140.00" departLane="best" departSpeed="max" from="-165560843#1" to="-13287933"/>
    <trip id="veh231" type="veh_passenger" depart="2141.00" departLane="best" departSpeed="max" from="-13421465#3" to="-609633811#0"/>
    <trip id="veh233" type="veh_passenger" depart="2143.00" departLane="best" departSpeed="max" from="-13463116#1" to="-398231674#0"/>
    <trip id="veh234" type="veh_passenger" depart="2144.00" departLane="best" from="13397828#2" to="859343581"/>