<?xml version="1.0" encoding="UTF-8"?>

<!-- generated on Sun Jan 31 10:54:33 2021 by Eclipse SUMO duarouter Version 1.8.0
<configuration xmlns:xsi="http://www.w3.org/2001/XMLSchema-instance" xsi:noNamespaceSchemaLocation="http://sumo.dlr.de/xsd/duarouterConfiguration.xsd">

    <input>
        <net-file value="osm_hov.net.xml"/>
        <route-files value="osm.hov.trips.xml"/>
    </input>

    <output>
        <output-file value="osm.hov.trips.xml.tmp"/>
        <write-trips value="true"/>
    </output>

    <time>
        <begin value="0"/>
        <end value="3600"/>
    </time>

    <report>
        <no-warnings value="true"/>
        <ignore-errors value="true"/>
        <no-step-log value="true"/>
    </report>

</configuration>
-->

<routes xmlns:xsi="http://www.w3.org/2001/XMLSchema-instance" xsi:noNamespaceSchemaLocation="http://sumo.dlr.de/xsd/routes_file.xsd">
    <vType id="hov_hov" vClass="hov"/>
    <trip id="hov0" type="hov_hov" depart="0.00" departLane="best" departSpeed="max" from="13458259#0" to="-13298600"/>
    <trip id="hov1" type="hov_hov" depart="1.28" departLane="best" departSpeed="max" from="-165776321#2" to="-150913656"/>
    <trip id="hov2" type="hov_hov" depart="2.56" departLane="best" departSpeed="max" from="-150913648" to="13294774#2"/>
    <trip id="hov3" type="hov_hov" depart="3.84" departLane="best" departSpeed="max" from="-13299224#2" to="-13464140"/>
    <trip id="hov4" type="hov_hov" depart="5.12" departLane="best" departSpeed="max" from="13466770" to="13327894"/>
    <trip id="hov5" type="hov_hov" depart="6.40" departLane="best" departSpeed="max" from="176996128" to="-13281948#0"/>
    <trip id="hov6" type="hov_hov" depart="7.68" departLane="best" departSpeed="max" from="176996128" to="13470552"/>
    <trip id="hov7" type="hov_hov" depart="8.96" departLane="best" departSpeed="max" from="-365598593" to="-13427784#1"/>
    <trip id="hov8" type="hov_hov" depart="10.24" departLane="best" departSpeed="max" from="622928277" to="-167920372#0"/>
    <trip id="hov9" type="hov_hov" depart="11.52" departLane="best" departSpeed="max" from="-13365780" to="-13361642#0"/>
    <trip id="hov10" type="hov_hov" depart="12.80" departLane="best" departSpeed="max" from="383013769" to="13381757#7"/>
    <trip id="hov11" type="hov_hov" depart="14.08" departLane="best" departSpeed="max" from="-524962751" to="13333477"/>
    <trip id="hov12" type="hov_hov" depart="15.36" departLane="best" departSpeed="max" from="301869716#0" to="13395656"/>
    <trip id="hov13" type="hov_hov" depart="16.64" departLane="best" departSpeed="max" from="398158787#0" to="13365615#6"/>
    <trip id="hov14" type="hov_hov" depart="17.92" departLane="best" departSpeed="max" from="159763307#0" to="-13312215"/>
    <trip id="hov15" type="hov_hov" depart="19.20" departLane="best" departSpeed="max" from="-13373410" to="-165774461"/>
    <trip id="hov16" type="hov_hov" depart="20.48" departLane="best" departSpeed="max" from="-404988216#1" to="-13468856#0"/>
    <trip id="hov17" type="hov_hov" depart="21.76" departLane="best" departSpeed="max" from="-165665945#2" to="665212183#1"/>
    <trip id="hov18" type="hov_hov" depart="23.04" departLane="best" departSpeed="max" from="13465701#0" to="13384707#1"/>
    <trip id="hov19" type="hov_hov" depart="24.32" departLane="best" departSpeed="max" from="-13437008#1" to="159608021"/>
    <trip id="hov20" type="hov_hov" depart="25.60" departLane="best" departSpeed="max" from="-13431381" to="-398218636"/>
    <trip id="hov21" type="hov_hov" depart="26.88" departLane="best" departSpeed="max" from="859649355" to="134117953#4"/>
    <trip id="hov22" type="hov_hov" depart="28.16" departLane="best" departSpeed="max" from="133801083#0" to="13454217"/>
    <trip id="hov23" type="hov_hov" depart="29.44" departLane="best" departSpeed="max" from="37684096#0" to="165782977#1"/>
    <trip id="hov24" type="hov_hov" depart="30.72" departLane="best" departSpeed="max" from="-176054499#3" to="-165568127#0"/>
    <trip id="hov25" type="hov_hov" depart="32.00" departLane="best" departSpeed="max" from="-148215662" to="673269355"/>
    <trip id="hov26" type="hov_hov" depart="33.28" departLane="best" departSpeed="max" from="398239900" to="-165828670#0"/>
    <trip id="hov27" type="hov_hov" depart="34.56" departLane="best" departSpeed="max" from="404977072" to="-742089606"/>
    <trip id="hov28" type="hov_hov" depart="35.84" departLane="best" departSpeed="max" from="-165568122#5" to="-159763305#0"/>
    <trip id="hov29" type="hov_hov" depart="37.12" departLane="best" departSpeed="max" from="13408637#0" to="398727196#1"/>
    <trip id="hov30" type="hov_hov" depart="38.40" departLane="best" departSpeed="max" from="-673269351" to="-148455912#0"/>
    <trip id="hov31" type="hov_hov" depart="39.68" departLane="best" departSpeed="max" from="-13376660#12" to="13401063#1"/>
    <trip id="hov32" type="hov_hov" depart="40.96" departLane="best" departSpeed="max" from="167920372#0" to="-4341234"/>
    <trip id="hov33" type="hov_hov" depart="42.24" departLane="best" departSpeed="max" from="-13333532#4" to="-398218636"/>
    <trip id="hov34" type="hov_hov" depart="43.52" departLane="best" departSpeed="max" from="-13291245#5" to="150913662"/>
    <trip id="hov35" type="hov_hov" depart="44.80" departLane="best" departSpeed="max" from="150945307#0" to="13322070"/>
    <trip id="hov36" type="hov_hov" depart="46.08" departLane="best" from="-13380898#3" to="-604159985#0"/>
    <trip id="hov37" type="hov_hov" depart="47.36" departLane="best" departSpeed="max" from="398239900" to="-165568098#0"/>
    <trip id="hov38" type="hov_hov" depart="48.64" departLane="best" departSpeed="max" from="13321499#0" to="-13443784"/>
    <trip id="hov39" type="hov_hov" depart="49.92" departLane="best" departSpeed="max" from="403844705" to="398164477#1"/>
    <trip id="hov40" type="hov_hov" depart="51.20" departLane="best" departSpeed="max" from="-165880108#2" to="13411114"/>
    <trip id="hov41" type="hov_hov" depart="52.48" departLane="best" departSpeed="max" from="13432018#0" to="-13423783#0"/>
    <trip id="hov42" type="hov_hov" depart="53.76" departLane="best" departSpeed="max" from="165790321#0" to="13324140#1"/>
    <trip id="hov43" type="hov_hov" depart="55.04" departLane="best" departSpeed="max" from="165880105#0" to="13316675"/>
    <trip id="hov44" type="hov_hov" depart="56.32" departLane="best" departSpeed="max" from="-113414374#1" to="-165884105#5"/>
    <trip id="hov45" type="hov_hov" depart="57.60" departLane="best" departSpeed="max" from="-13295679" to="622928679"/>
    <trip id="hov46" type="hov_hov" depart="58.88" departLane="best" departSpeed="max" from="398251732#0" to="288116300#8"/>
    <trip id="hov47" type="hov_hov" depart="60.16" departLane="best" departSpeed="max" from="-165884183#1" to="-13322337#0"/>
    <trip id="hov48" type="hov_hov" depart="61.44" departLane="best" departSpeed="max" from="398251732#0" to="684291652#1"/>
    <trip id="hov49" type="hov_hov" depart="62.72" departLane="best" departSpeed="max" from="-13361072" to="124550370"/>
    <trip id="hov50" type="hov_hov" depart="64.00" departLane="best" departSpeed="max" from="-13344688#1" to="165665929#0"/>
    <trip id="hov51" type="hov_hov" depart="65.28" departLane="best" departSpeed="max" from="165790340#0" to="-13396650#0"/>
    <trip id="hov52" type="hov_hov" depart="66.56" departLane="best" departSpeed="max" from="13303520" to="13332273#5"/>
    <trip id="hov53" type="hov_hov" depart="67.84" departLane="best" from="-165568135#1" to="398227135#2"/>
    <trip id="hov55" type="hov_hov" depart="70.40" departLane="best" departSpeed="max" from="13361517#0" to="159608029#3"/>
    <trip id="hov56" type="hov_hov" depart="71.68" departLane="best" departSpeed="max" from="-13466704#4" to="-165792368#0"/>
    <trip id="hov57" type="hov_hov" depart="72.96" departLane="best" departSpeed="max" from="124550393" to="13307839#7"/>
    <trip id="hov58" type="hov_hov" depart="74.24" departLane="best" departSpeed="max" from="-13384799" to="-150945299"/>
    <trip id="hov59" type="hov_hov" depart="75.52" departLane="best" departSpeed="max" from="-365598527" to="13373161#2"/>
    <trip id="hov60" type="hov_hov" depart="76.80" departLane="best" departSpeed="max" from="-13345479#3" to="13406002"/>
    <trip id="hov61" type="hov_hov" depart="78.08" departLane="best" departSpeed="max" from="-159257762" to="443325968"/>
    <trip id="hov62" type="hov_hov" depart="79.36" departLane="best" departSpeed="max" from="398158787#0" to="-13328151"/>
    <trip id="hov63" type="hov_hov" depart="80.64" departLane="best" departSpeed="max" from="-149003072#3" to="-13405759#0"/>
    <trip id="hov64" type="hov_hov" depart="81.92" departLane="best" departSpeed="max" from="13300322" to="165790331"/>
    <trip id="hov65" type="hov_hov" depart="83.20" departLane="best" departSpeed="max" from="176996128" to="-13454318#0"/>
    <trip id="hov66" type="hov_hov" depart="84.48" departLane="best" departSpeed="max" from="-13367893#2" to="-518126704#1"/>
    <trip id="hov67" type="hov_hov" depart="85.76" departLane="best" from="165665922#5" to="13443119#3"/>
    <trip id="hov68" type="hov_hov" depart="87.04" departLane="best" departSpeed="max" from="797876019#0" to="-13362617#0"/>
    <trip id="hov69" type="hov_hov" depart="88.32" departLane="best" departSpeed="max" from="-682585909" to="-168367856"/>
    <trip id="hov70" type="hov_hov" depart="89.60" departLane="best" departSpeed="max" from="398158787#0" to="-160068593#0"/>
    <trip id="hov71" type="hov_hov" depart="90.88" departLane="best" departSpeed="max" from="-13453431" to="-673066126#2"/>
    <trip id="hov72" type="hov_hov" depart="92.16" departLane="best" departSpeed="max" from="-159756854#5" to="607194248#3"/>
    <trip id="hov73" type="hov_hov" depart="93.44" departLane="best" departSpeed="max" from="124550393" to="397474478#1"/>
    <trip id="hov74" type="hov_hov" depart="94.72" departLane="best" departSpeed="max" from="879314603#0" to="30968402"/>
    <trip id="hov75" type="hov_hov" depart="96.00" departLane="best" departSpeed="max" from="687270595" to="61651878"/>
    <trip id="hov76" type="hov_hov" depart="97.28" departLane="best" departSpeed="max" from="383013769" to="-13436063#1"/>
    <trip id="hov77" type="hov_hov" depart="98.56" departLane="best" departSpeed="max" from="13311124" to="-136732119#0"/>
    <trip id="hov78" type="hov_hov" depart="99.84" departLane="best" departSpeed="max" from="-673269355" to="-13322337#0"/>
    <trip id="hov79" type="hov_hov" depart="101.12" departLane="best" departSpeed="max" from="-524962751" to="814267423#8"/>
    <trip id="hov80" type="hov_hov" depart="102.40" departLane="best" from="-165665927#0" to="165790331"/>
    <trip id="hov81" type="hov_hov" depart="103.68" departLane="best" departSpeed="max" from="13291247" to="-4341237#0"/>
    <trip id="hov82" type="hov_hov" depart="104.96" departLane="best" departSpeed="max" from="622928277" to="859343581"/>
    <trip id="hov83" type="hov_hov" depart="106.24" departLane="best" departSpeed="max" from="-13417815" to="-165782978#0"/>
    <trip id="hov84" type="hov_hov" depart="107.52" departLane="best" departSpeed="max" from="-13328127#5" to="13367893#0"/>
    <trip id="hov85" type="hov_hov" depart="108.80" departLane="best" departSpeed="max" from="13323868" to="381230012#1"/>
    <trip id="hov86" type="hov_hov" depart="110.08" departLane="best" departSpeed="max" from="-13421465#3" to="720169817"/>
    <trip id="hov88" type="hov_hov" depart="112.64" departLane="best" departSpeed="max" from="398400438" to="-159763305#0"/>
    <trip id="hov89" type="hov_hov" depart="113.92" departLane="best" departSpeed="max" from="-720169817" to="13367893#0"/>
    <trip id="hov90" type="hov_hov" depart="115.20" departLane="best" departSpeed="max" from="13335013#0" to="631737212#2"/>
    <trip id="hov92" type="hov_hov" depart="117.76" departLane="best" departSpeed="max" from="-159608047#1" to="-398361695"/>
    <trip id="hov93" type="hov_hov" depart="119.04" departLane="best" departSpeed="max" from="149009296#0" to="-165784239#2"/>
    <trip id="hov94" type="hov_hov" depart="120.32" departLane="best" departSpeed="max" from="-176054499#3" to="165560843#0"/>
    <trip id="hov95" type="hov_hov" depart="121.60" departLane="best" departSpeed="max" from="-13348378" to="-742089606"/>
    <trip id="hov96" type="hov_hov" depart="122.88" departLane="best" departSpeed="max" from="879314603#0" to="859343581"/>
    <trip id="hov97" type="hov_hov" depart="124.16" departLane="best" departSpeed="max" from="-13349551#1" to="-136732119#0"/>
    <trip id="hov98" type="hov_hov" depart="125.44" departLane="best" from="-165665926#2" to="630875821"/>
    <trip id="hov99" type="hov_hov" depart="126.72" departLane="best" departSpeed="max" from="398253258#0" to="398233623#1"/>
    <trip id="hov100" type="hov_hov" depart="128.00" departLane="best" departSpeed="max" from="-404988216#1" to="-13431346#0"/>
    <trip id="hov101" type="hov_hov" depart="129.28" departLane="best" departSpeed="max" from="30968317" to="148356681"/>
    <trip id="hov102" type="hov_hov" depart="130.56" departLane="best" departSpeed="max" from="13434409" to="82212765#1"/>
    <trip id="hov105" type="hov_hov" depart="134.40" departLane="best" departSpeed="max" from="148356658#0" to="668298720"/>
    <trip id="hov106" type="hov_hov" depart="135.68" departLane="best" departSpeed="max" from="-13396136#2" to="-13381608"/>
    <trip id="hov107" type="hov_hov" depart="136.96" departLane="best" departSpeed="max" from="-13376355#6" to="13333532#4"/>
    <trip id="hov108" type="hov_hov" depart="138.24" departLane="best" departSpeed="max" from="-165774473" to="13381858"/>
    <trip id="hov109" type="hov_hov" depart="139.52" departLane="best" departSpeed="max" from="165568075#0" to="-13466706"/>
    <trip id="hov110" type="hov_hov" depart="140.80" departLane="best" departSpeed="max" from="13452731#0" to="-165568098#0"/>
    <trip id="hov111" type="hov_hov" depart="142.08" departLane="best" departSpeed="max" from="13311992" to="443325968"/>
    <trip id="hov112" type="hov_hov" depart="143.36" departLane="best" from="-13281956#11" to="165776323#3"/>
    <trip id="hov113" type="hov_hov" depart="144.64" departLane="best" departSpeed="max" from="165774483#0" to="13333477"/>
    <trip id="hov114" type="hov_hov" depart="145.92" departLane="best" departSpeed="max" from="-802811755" to="-13287933"/>
    <trip id="hov115" type="hov_hov" depart="147.20" departLane="best" departSpeed="max" from="-13350099" to="398364652#1"/>
    <trip id="hov116" type="hov_hov" depart="148.48" departLane="best" departSpeed="max" from="30968317" to="13367169"/>
    <trip id="hov117" type="hov_hov" depart="149.76" departLane="best" departSpeed="max" from="-165884183#1" to="404964737#0"/>
    <trip id="hov118" type="hov_hov" depart="151.04" departLane="best" departSpeed="max" from="398414286" to="-13470332"/>
    <trip id="hov119" type="hov_hov" depart="152.32" departLane="best" departSpeed="max" from="-159756854#5" to="-13367921"/>
    <trip id="hov121" type="hov_hov" depart="154.88" departLane="best" departSpeed="max" from="-687409238" to="13395743#1"/>
    <trip id="hov122" type="hov_hov" depart="156.16" departLane="best" departSpeed="max" from="-13417815" to="622928679"/>
    <trip id="hov123" type="hov_hov" depart="157.44" departLane="best" departSpeed="max" from="398218636" to="769195670"/>
    <trip id="hov124" type="hov_hov" depart="158.72" departLane="best" departSpeed="max" from="-339701909" to="622928679"/>
    <trip id="hov125" type="hov_hov" depart="160.00" departLane="best" departSpeed="max" from="176996128" to="-165568113#0"/>
    <trip id="hov127" type="hov_hov" depart="162.56" departLane="best" from="398233620#1" to="384150565"/>
    <trip id="hov128" type="hov_hov" depart="163.84" departLane="best" departSpeed="max" from="-150913658#8" to="180073503"/>
    <trip id="hov129" type="hov_hov" depart="165.12" departLane="best" departSpeed="max" from="168367856" to="-159064686#0"/>
    <trip id="hov130" type="hov_hov" depart="166.40" departLane="best" departSpeed="max" from="-13296924#5" to="-13458259#0"/>
    <trip id="hov131" type="hov_hov" depart="167.68" departLane="best" departSpeed="max" from="-288116300#8" to="397474478#1"/>
    <trip id="hov132" type="hov_hov" depart="168.96" departLane="best" departSpeed="max" from="13458296#0" to="-398364714#0"/>
    <trip id="hov133" type="hov_hov" depart="170.24" departLane="best" departSpeed="max" from="55336160#0" to="-13381608"/>
    <trip id="hov134" type="hov_hov" depart="171.52" departLane="best" departSpeed="max" from="623553697#0" to="-165568108#2"/>
    <trip id="hov135" type="hov_hov" depart="172.80" departLane="best" departSpeed="max" from="-13376660#12" to="-604159985#0"/>
    <trip id="hov136" type="hov_hov" depart="174.08" departLane="best" departSpeed="max" from="165568131#0" to="-165792374"/>
    <trip id="hov137" type="hov_hov" depart="175.36" departLane="best" departSpeed="max" from="13431382" to="13297277#2"/>
    <trip id="hov138" type="hov_hov" depart="176.64" departLane="best" departSpeed="max" from="-606824621#2" to="13364338"/>
    <trip id="hov139" type="hov_hov" depart="177.92" departLane="best" from="-121501753#3" to="608182910"/>
    <trip id="hov140" type="hov_hov" depart="179.20" departLane="best" departSpeed="max" from="13352725#0" to="150913660"/>
    <trip id="hov141" type="hov_hov" depart="180.48" departLane="best" departSpeed="max" from="165774483#0" to="13438496"/>
    <trip id="hov144" type="hov_hov" depart="184.32" departLane="best" departSpeed="max" from="-682585909" to="-165782978#0"/>
    <trip id="hov145" type="hov_hov" depart="185.60" departLane="best" departSpeed="max" from="-13395654#1" to="-4341233#0"/>
    <trip id="hov146" type="hov_hov" depart="186.88" departLane="best" departSpeed="max" from="55336160#0" to="13448320"/>
    <trip id="hov148" type="hov_hov" depart="189.44" departLane="best" departSpeed="max" from="13468856#0" to="-797876019#0"/>
    <trip id="hov149" type="hov_hov" depart="190.72" departLane="best" departSpeed="max" from="124550393" to="-136732119#0"/>
    <trip id="hov150" type="hov_hov" depart="192.00" departLane="best" departSpeed="max" from="13300322" to="404988216#1"/>
    <trip id="hov151" type="hov_hov" depart="193.28" departLane="best" departSpeed="max" from="168367856" to="-13437675#0"/>
    <trip id="hov152" type="hov_hov" depart="194.56" departLane="best" departSpeed="max" from="13451157#0" to="-167011963#0"/>
    <trip id="hov153" type="hov_hov" depart="195.84" departLane="best" departSpeed="max" from="237019983" to="159763318#0"/>
    <trip id="hov154" type="hov_hov" depart="197.12" departLane="best" departSpeed="max" from="-13463116#1" to="-13298600"/>
    <trip id="hov155" type="hov_hov" depart="198.40" departLane="best" departSpeed="max" from="-159608219#3" to="118836342"/>
    <trip id="hov156" type="hov_hov" depart="199.68" departLane="best" from="384142993#1" to="-13330870#0"/>
    <trip id="hov157" type="hov_hov" depart="200.96" departLane="best" departSpeed="max" from="-714471519" to="13405989#3"/>
    <trip id="hov159" type="hov_hov" depart="203.52" departLane="best" departSpeed="max" from="13318502#0" to="-159762596"/>
    <trip id="hov160" type="hov_hov" depart="204.80" departLane="best" departSpeed="max" from="13470332" to="-13280428#0"/>
    <trip id="hov161" type="hov_hov" depart="206.08" departLane="best" departSpeed="max" from="165782977#0" to="165776321#2"/>
    <trip id="hov163" type="hov_hov" depart="208.64" departLane="best" departSpeed="max" from="13291247" to="165884165"/>
    <trip id="hov164" type="hov_hov" depart="209.92" departLane="best" departSpeed="max" from="148356765" to="829119490#6"/>
    <trip id="hov166" type="hov_hov" depart="212.48" departLane="best" departSpeed="max" from="30968309" to="13329135#2"/>
    <trip id="hov167" type="hov_hov" depart="213.76" departLane="best" departSpeed="max" from="398414286" to="159608581#0"/>
    <trip id="hov168" type="hov_hov" depart="215.04" departLane="best" departSpeed="max" from="13301940" to="-165568059"/>
    <trip id="hov169" type="hov_hov" depart="216.32" departLane="best" from="-159608581#1" to="13410778#2"/>
    <trip id="hov170" type="hov_hov" depart="217.60" departLane="best" departSpeed="max" from="13445170#0" to="-165665954#3"/>
    <trip id="hov171" type="hov_hov" depart="218.88" departLane="best" departSpeed="max" from="-13351324" to="-165774483#0"/>
    <trip id="hov172" type="hov_hov" depart="220.16" departLane="best" departSpeed="max" from="-165774473" to="-165880079"/>
    <trip id="hov173" type="hov_hov" depart="221.44" departLane="best" departSpeed="max" from="13361642#0" to="-13408628#0"/>
    <trip id="hov174" type="hov_hov" depart="222.72" departLane="best" departSpeed="max" from="-159605404#1" to="13466704#4"/>
    <trip id="hov175" type="hov_hov" depart="224.00" departLane="best" departSpeed="max" from="160068593#0" to="-13326227"/>
    <trip id="hov176" type="hov_hov" depart="225.28" departLane="best" departSpeed="max" from="-688332626" to="13325607#1"/>
    <trip id="hov177" type="hov_hov" depart="226.56" departLane="best" departSpeed="max" from="-714471519" to="-13468018#3"/>
    <trip id="hov178" type="hov_hov" depart="227.84" departLane="best" departSpeed="max" from="-720169817" to="443325968"/>
    <trip id="hov179" type="hov_hov" depart="229.12" departLane="best" departSpeed="max" from="397540645" to="165774466"/>
    <trip id="hov180" type="hov_hov" depart="230.40" departLane="best" departSpeed="max" from="-55336166#9" to="-13280428#0"/>
    <trip id="hov181" type="hov_hov" depart="231.68" departLane="best" departSpeed="max" from="384788447" to="706525727"/>
    <trip id="hov182" type="hov_hov" depart="232.96" departLane="best" departSpeed="max" from="-720169817" to="159759787#2"/>
    <trip id="hov183" type="hov_hov" depart="234.24" departLane="best" departSpeed="max" from="13367797" to="13381757#7"/>
    <trip id="hov184" type="hov_hov" depart="235.52" departLane="best" departSpeed="max" from="113411288#0" to="-13300322"/>
    <trip id="hov185" type="hov_hov" depart="236.80" departLane="best" departSpeed="max" from="-365543073#2" to="13448540"/>
    <trip id="hov186" type="hov_hov" depart="238.08" departLane="best" departSpeed="max" from="-684291652#1" to="-13434409"/>
    <trip id="hov187" type="hov_hov" depart="239.36" departLane="best" departSpeed="max" from="-13299224#2" to="134117953#4"/>
    <trip id="hov188" type="hov_hov" depart="240.64" departLane="best" departSpeed="max" from="-13397543" to="-742821929"/>
    <trip id="hov189" type="hov_hov" depart="241.92" departLane="best" departSpeed="max" from="-13324140#1" to="-398218636"/>
    <trip id="hov190" type="hov_hov" depart="243.20" departLane="best" departSpeed="max" from="-148215662" to="-165884146#0"/>
    <trip id="hov191" type="hov_hov" depart="244.48" departLane="best" departSpeed="max" from="165790320" to="-398218636"/>
    <trip id="hov192" type="hov_hov" depart="245.76" departLane="best" departSpeed="max" from="-159762594#1" to="-13339421"/>
    <trip id="hov193" type="hov_hov" depart="247.04" departLane="best" departSpeed="max" from="879314603#0" to="-205586786"/>
    <trip id="hov194" type="hov_hov" depart="248.32" departLane="best" departSpeed="max" from="13468018#0" to="165568057#2"/>
    <trip id="hov195" type="hov_hov" depart="249.60" departLane="best" from="607788599" to="-13464970"/>
    <trip id="hov196" type="hov_hov" depart="250.88" departLane="best" departSpeed="max" from="-13295679" to="-13423783#0"/>
    <trip id="hov197" type="hov_hov" depart="252.16" departLane="best" departSpeed="max" from="165782962#0" to="-13381608"/>
    <trip id="hov198" type="hov_hov" depart="253.44" departLane="best" departSpeed="max" from="-13376355#6" to="-13299226#0"/>
    <trip id="hov199" type="hov_hov" depart="254.72" departLane="best" departSpeed="max" from="622928279" to="-398364714#0"/>
    <trip id="hov200" type="hov_hov" depart="256.00" departLane="best" departSpeed="max" from="165568059" to="-13333484#0"/>
    <trip id="hov201" type="hov_hov" depart="257.28" departLane="best" departSpeed="max" from="159608162#0" to="13400218#1"/>
    <trip id="hov202" type="hov_hov" depart="258.56" departLane="best" departSpeed="max" from="-13373410" to="165776323#3"/>
    <trip id="hov203" type="hov_hov" depart="259.84" departLane="best" departSpeed="max" from="384143496" to="13381357"/>
    <trip id="hov204" type="hov_hov" depart="261.12" departLane="best" departSpeed="max" from="-13384799" to="802811755"/>
    <trip id="hov205" type="hov_hov" depart="262.40" departLane="best" departSpeed="max" from="165884146#0" to="-173876490#0"/>
    <trip id="hov206" type="hov_hov" depart="263.68" departLane="best" from="-81338439#3" to="-397540645"/>
    <trip id="hov207" type="hov_hov" depart="264.96" departLane="best" departSpeed="max" from="13324143" to="-168367856"/>
    <trip id="hov208" type="hov_hov" depart="266.24" departLane="best" from="384140613" to="25377396"/>
    <trip id="hov209" type="hov_hov" depart="267.52" departLane="best" departSpeed="max" from="-13376345" to="720169817"/>
    <trip id="hov210" type="hov_hov" depart="268.80" departLane="best" departSpeed="max" from="13452731#0" to="27934796#1"/>
    <trip id="hov211" type="hov_hov" depart="270.08" departLane="best" departSpeed="max" from="165560819#0" to="-604159985#0"/>
    <trip id="hov212" type="hov_hov" depart="271.36" departLane="best" departSpeed="max" from="-165774466" to="167920964#7"/>
    <trip id="hov213" type="hov_hov" depart="272.64" departLane="best" departSpeed="max" from="13352725#0" to="124550370"/>
    <trip id="hov214" type="hov_hov" depart="273.92" departLane="best" departSpeed="max" from="113411288#0" to="159608031"/>
    <trip id="hov215" type="hov_hov" depart="275.20" departLane="best" departSpeed="max" from="-165772560#1" to="381230012#1"/>
    <trip id="hov216" type="hov_hov" depart="276.48" departLane="best" departSpeed="max" from="398253258#0" to="-159762596"/>
    <trip id="hov217" type="hov_hov" depart="277.76" departLane="best" departSpeed="max" from="13296963#0" to="13384799"/>
    <trip id="hov218" type="hov_hov" depart="279.04" departLane="best" departSpeed="max" from="-524962751" to="-13300322"/>
    <trip id="hov219" type="hov_hov" depart="280.32" departLane="best" departSpeed="max" from="384143496" to="-13446430#2"/>
    <trip id="hov221" type="hov_hov" depart="282.88" departLane="best" departSpeed="max" from="-365598593" to="398233623#1"/>
    <trip id="hov222" type="hov_hov" depart="284.16" departLane="best" departSpeed="max" from="-13291245#5" to="687409238"/>
    <trip id="hov223" type="hov_hov" depart="285.44" departLane="best" departSpeed="max" from="-13361072" to="150913662"/>
    <trip id="hov224" type="hov_hov" depart="286.72" departLane="best" departSpeed="max" from="13311992" to="165568096#7"/>
    <trip id="hov225" type="hov_hov" depart="288.00" departLane="best" departSpeed="max" from="159608162#0" to="13417403#1"/>
    <trip id="hov226" type="hov_hov" depart="289.28" departLane="best" departSpeed="max" from="13316682#0" to="165880082"/>
    <trip id="hov228" type="hov_hov" depart="291.84" departLane="best" departSpeed="max" from="13349026#0" to="-4341242#4"/>
    <trip id="hov230" type="hov_hov" depart="294.40" departLane="best" departSpeed="max" from="159763305#0" to="-165568131#0"/>
    <trip id="hov231" type="hov_hov" depart="295.68" departLane="best" departSpeed="max" from="-13454217" to="-13388652#0"/>
    <trip id="hov232" type="hov_hov" depart="296.96" departLane="best" departSpeed="max" from="13351330" to="165665945#2"/>
    <trip id="hov233" type="hov_hov" depart="298.24" departLane="best" departSpeed="max" from="742089606" to="13311126#1"/>
    <trip id="hov234" type="hov_hov" depart="299.52" departLane="best" departSpeed="max" from="-13455837" to="-159064686#0"/>
    <trip id="hov235" type="hov_hov" depart="300.80" departLane="best" departSpeed="max" from="-13441550" to="-13291249"/>
    <trip id="hov236" type="hov_hov" depart="302.08" departLane="best" departSpeed="max" from="13351077" to="-165665945#0"/>
    <trip id="hov237" type="hov_hov" depart="303.36" departLane="best" departSpeed="max" from="742089606" to="13333532#4"/>
    <trip id="hov238" type="hov_hov" depart="304.64" departLane="best" departSpeed="max" from="159759774" to="-13395739#0"/>
    <trip id="hov239" type="hov_hov" depart="305.92" departLane="best" departSpeed="max" from="398218636" to="13284395"/>
    <trip id="hov240" type="hov_hov" depart="307.20" departLane="best" departSpeed="max" from="398239900" to="13361072"/>
    <trip id="hov241" type="hov_hov" depart="308.48" departLane="best" departSpeed="max" from="13299226#0" to="-607492381#4"/>
    <trip id="hov242" type="hov_hov" depart="309.76" departLane="best" departSpeed="max" from="-13448320" to="-13318502#0"/>
    <trip id="hov243" type="hov_hov" depart="311.04" departLane="best" from="57370524" to="118836342"/>
    <trip id="hov245" type="hov_hov" depart="313.60" departLane="best" departSpeed="max" from="-13349551#1" to="13405989#3"/>
    <trip id="hov246" type="hov_hov" depart="314.88" departLane="best" departSpeed="max" from="13384707#0" to="-165790320"/>
    <trip id="hov247" type="hov_hov" depart="316.16" departLane="best" departSpeed="max" from="859649355" to="-13384707#0"/>
    <trip id="hov248" type="hov_hov" depart="317.44" departLane="best" departSpeed="max" from="165790340#0" to="13383148"/>
    <trip id="hov249" type="hov_hov" depart="318.72" departLane="best" departSpeed="max" from="167011963#0" to="-150945307#0"/>
    <trip id="hov250" type="hov_hov" depart="320.00" departLane="best" departSpeed="max" from="13335013#0" to="-691335254"/>
    <trip id="hov252" type="hov_hov" depart="322.56" departLane="best" departSpeed="max" from="859649355" to="-165790321#0"/>