<?xml version="1.0" encoding="UTF-8"?>

<!-- generated on Sun Dec 13 15:52:14 2020 by Eclipse SUMO duarouter Version 1.8.0
<configuration xmlns:xsi="http://www.w3.org/2001/XMLSchema-instance" xsi:noNamespaceSchemaLocation="http://sumo.dlr.de/xsd/duarouterConfiguration.xsd">

    <input>
        <net-file value="osmSanitized.net.xml"/>
        <route-files value="osmSanitized.passenger.trips.xml"/>
    </input>

    <output>
        <output-file value="osmSanitized.passenger.trips.xml.tmp"/>
        <write-trips value="true"/>
    </output>

    <time>
        <begin value="0"/>
        <end value="3600"/>
    </time>

    <report>
        <no-warnings value="true"/>
        <ignore-errors value="true"/>
        <no-step-log value="true"/>
    </report>

</configuration>
-->

<routes xmlns:xsi="http://www.w3.org/2001/XMLSchema-instance" xsi:noNamespaceSchemaLocation="http://sumo.dlr.de/xsd/routes_file.xsd">
    <vType id="veh_passenger" vClass="passenger"/>
    <trip id="veh0" type="veh_passenger" depart="0.00" departLane="best" departSpeed="max" from="13445666" to="-13295310#2"/>
    <trip id="veh1" type="veh_passenger" depart="0.26" departLane="best" departSpeed="max" from="-172075479#3" to="-182964164#0"/>
    <trip id="veh2" type="veh_passenger" depart="0.52" departLane="best" departSpeed="max" from="182577171#2" to="172076622#1"/>
    <trip id="veh3" type="veh_passenger" depart="0.78" departLane="best" departSpeed="max" from="406488961" to="-13378864#0"/>
    <trip id="veh4" type="veh_passenger" depart="1.03" departLane="best" departSpeed="max" from="-581413635#2" to="-13299609#0"/>
    <trip id="veh5" type="veh_passenger" depart="1.29" departLane="best" departSpeed="max" from="-13448649#2" to="13383777"/>
    <trip id="veh7" type="veh_passenger" depart="1.81" departLane="best" departSpeed="max" from="13452814" to="13412103"/>
    <trip id="veh8" type="veh_passenger" depart="2.07" departLane="best" departSpeed="max" from="-13448649#2" to="13437685"/>
    <trip id="veh10" type="veh_passenger" depart="2.58" departLane="best" departSpeed="max" from="32232651#0" to="178102878#1"/>
    <trip id="veh11" type="veh_passenger" depart="2.84" departLane="best" departSpeed="max" from="-351681193" to="-13454249#2"/>
    <trip id="veh12" type="veh_passenger" depart="3.10" departLane="best" departSpeed="max" from="-13356917#3" to="-13386999"/>
    <trip id="veh13" type="veh_passenger" depart="3.36" departLane="best" departSpeed="max" from="404280194" to="13447488"/>
    <trip id="veh14" type="veh_passenger" depart="3.62" departLane="best" departSpeed="max" from="32232651#0" to="236591777#1"/>
    <trip id="veh15" type="veh_passenger" depart="3.88" departLane="best" departSpeed="max" from="13323713#0" to="864558248"/>
    <trip id="veh16" type="veh_passenger" depart="4.13" departLane="best" departSpeed="max" from="-405376275" to="13420598"/>
    <trip id="veh17" type="veh_passenger" depart="4.39" departLane="best" departSpeed="max" from="398048108#0" to="13452817#5"/>
    <trip id="veh18" type="veh_passenger" depart="4.65" departLane="best" from="405371678#0" to="13433531"/>
    <trip id="veh19" type="veh_passenger" depart="4.91" departLane="best" departSpeed="max" from="172076623" to="-13326361#0"/>
    <trip id="veh20" type="veh_passenger" depart="5.17" departLane="best" departSpeed="max" from="-13452817#5" to="-405374479#4"/>
    <trip id="veh21" type="veh_passenger" depart="5.43" departLane="best" departSpeed="max" from="-13345082#1" to="-186585803"/>
    <trip id="veh22" type="veh_passenger" depart="5.68" departLane="best" departSpeed="max" from="-13363220" to="-398208949#2"/>
    <trip id="veh23" type="veh_passenger" depart="5.94" departLane="best" departSpeed="max" from="13440592" to="100831900"/>
    <trip id="veh24" type="veh_passenger" depart="6.20" departLane="best" departSpeed="max" from="-405371684#1" to="-180074676#0"/>
    <trip id="veh25" type="veh_passenger" depart="6.46" departLane="best" departSpeed="max" from="-167701806" to="716665842"/>
    <trip id="veh26" type="veh_passenger" depart="6.72" departLane="best" departSpeed="max" from="13452814" to="13448649#2"/>
    <trip id="veh27" type="veh_passenger" depart="6.98" departLane="best" departSpeed="max" from="-13420598" to="236586688"/>
    <trip id="veh28" type="veh_passenger" depart="7.23" departLane="best" departSpeed="max" from="-13416096#7" to="123570158"/>
    <trip id="veh30" type="veh_passenger" depart="7.75" departLane="best" departSpeed="max" from="13347493#0" to="172076622#1"/>
    <trip id="veh31" type="veh_passenger" depart="8.01" departLane="best" departSpeed="max" from="404280194" to="34855984#0"/>
    <trip id="veh32" type="veh_passenger" depart="8.27" departLane="best" departSpeed="max" from="-13452817#5" to="-13306495#0"/>
    <trip id="veh33" type="veh_passenger" depart="8.53" departLane="best" departSpeed="max" from="-236591777#5" to="-398048108#1"/>
    <trip id="veh34" type="veh_passenger" depart="8.78" departLane="best" departSpeed="max" from="-13446186" to="717052162#1"/>
    <trip id="veh35" type="veh_passenger" depart="9.04" departLane="best" departSpeed="max" from="405385335#0" to="-509082221"/>
    <trip id="veh36" type="veh_passenger" depart="9.30" departLane="best" departSpeed="max" from="13454302#0" to="13284329"/>
    <trip id="veh37" type="veh_passenger" depart="9.56" departLane="best" departSpeed="max" from="509082223" to="13341660"/>
    <trip id="veh38" type="veh_passenger" depart="9.82" departLane="best" departSpeed="max" from="-167701806" to="-31352297#0"/>
    <trip id="veh39" type="veh_passenger" depart="10.08" departLane="best" departSpeed="max" from="13354502#0" to="-374510740"/>
    <trip id="veh40" type="veh_passenger" depart="10.34" departLane="best" departSpeed="max" from="13382110#0" to="578684521"/>
    <trip id="veh41" type="veh_passenger" depart="10.59" departLane="best" departSpeed="max" from="-482941008#4" to="-182577171#6"/>
    <trip id="veh42" type="veh_passenger" depart="10.85" departLane="best" from="866594332" to="13386086#1"/>
    <trip id="veh43" type="veh_passenger" depart="11.11" departLane="best" departSpeed="max" from="-13356292" to="-13333526#0"/>
    <trip id="veh44" type="veh_passenger" depart="11.37" departLane="best" departSpeed="max" from="-13377274#2" to="13466443#3"/>
    <trip id="veh46" type="veh_passenger" depart="11.89" departLane="best" departSpeed="max" from="-13332936" to="123570158"/>
    <trip id="veh47" type="veh_passenger" depart="12.14" departLane="best" from="866591865-AddedOnRampEdge" to="13401208"/>
    <trip id="veh48" type="veh_passenger" depart="12.40" departLane="best" departSpeed="max" from="722321988#0" to="406211060"/>
    <trip id="veh49" type="veh_passenger" depart="12.66" departLane="best" departSpeed="max" from="-13280224#3" to="185027319"/>
    <trip id="veh50" type="veh_passenger" depart="12.92" departLane="best" departSpeed="max" from="159669984#0" to="13410334#0"/>
    <trip id="veh51" type="veh_passenger" depart="13.18" departLane="best" departSpeed="max" from="-13377274#2" to="13323713#3"/>
    <trip id="veh52" type="veh_passenger" depart="13.44" departLane="best" departSpeed="max" from="-716663083" to="862441469"/>
    <trip id="veh53" type="veh_passenger" depart="13.69" departLane="best" departSpeed="max" from="405385335#0" to="-374510740"/>
    <trip id="veh56" type="veh_passenger" depart="14.47" departLane="best" departSpeed="max" from="-176726245" to="13472015"/>
    <trip id="veh57" type="veh_passenger" depart="14.73" departLane="best" departSpeed="max" from="13410331#3" to="-13452814"/>
    <trip id="veh58" type="veh_passenger" depart="14.99" departLane="best" departSpeed="max" from="30647277" to="13410341"/>
    <trip id="veh59" type="veh_passenger" depart="15.24" departLane="best" departSpeed="max" from="31352297#0" to="13409217"/>
    <trip id="veh60" type="veh_passenger" depart="15.50" departLane="best" departSpeed="max" from="-100831900" to="-607517414"/>
    <trip id="veh61" type="veh_passenger" depart="15.76" departLane="best" departSpeed="max" from="-13285655" to="715812112"/>
    <trip id="veh62" type="veh_passenger" depart="16.02" departLane="best" from="405571048" to="405371684#1"/>
    <trip id="veh63" type="veh_passenger" depart="16.28" departLane="best" departSpeed="max" from="-182577688" to="-13343540#1"/>
    <trip id="veh64" type="veh_passenger" depart="16.54" departLane="best" from="405482709#1" to="731830163#2"/>
    <trip id="veh65" type="veh_passenger" depart="16.79" departLane="best" departSpeed="max" from="-13351702#5" to="13371675#1"/>
    <trip id="veh66" type="veh_passenger" depart="17.05" departLane="best" departSpeed="max" from="-13333526#2" to="32232836"/>
    <trip id="veh67" type="veh_passenger" depart="17.31" departLane="best" departSpeed="max" from="30647277" to="-13436642"/>
    <trip id="veh68" type="veh_passenger" depart="17.57" departLane="best" departSpeed="max" from="-840806354#2" to="13416926#4"/>
    <trip id="veh69" type="veh_passenger" depart="17.83" departLane="best" departSpeed="max" from="-167701806" to="42420525#1-AddedOnRampEdge"/>
    <trip id="veh70" type="veh_passenger" depart="18.09" departLane="best" departSpeed="max" from="-605489230" to="-180074676#0"/>
    <trip id="veh71" type="veh_passenger" depart="18.34" departLane="best" departSpeed="max" from="13326361#0" to="236591777#1"/>
    <trip id="veh73" type="veh_passenger" depart="18.86" departLane="best" from="866591865" to="161693487#0"/>
    <trip id="veh74" type="veh_passenger" depart="19.12" departLane="best" departSpeed="max" from="-715688069" to="13395615#2"/>
    <trip id="veh75" type="veh_passenger" depart="19.38" departLane="best" departSpeed="max" from="-13383772" to="-185962379#2"/>
    <trip id="veh76" type="veh_passenger" depart="19.64" departLane="best" departSpeed="max" from="-351681193" to="13437549"/>
    <trip id="veh77" type="veh_passenger" depart="19.89" departLane="best" departSpeed="max" from="-13462569" to="-182577171#6"/>
    <trip id="veh78" type="veh_passenger" depart="20.15" departLane="best" departSpeed="max" from="-13333528#3" to="13466566#7"/>
    <trip id="veh79" type="veh_passenger" depart="20.41" departLane="best" departSpeed="max" from="-13452817#5" to="607103556"/>
    <trip id="veh80" type="veh_passenger" depart="20.67" departLane="best" departSpeed="max" from="405371322#0" to="-13356288#0"/>
    <trip id="veh81" type="veh_passenger" depart="20.93" departLane="best" from="-13466444#7" to="172075479#3"/>
    <trip id="veh82" type="veh_passenger" depart="21.19" departLane="best" departSpeed="max" from="-13447488" to="-13437548"/>
    <trip id="veh83" type="veh_passenger" depart="21.45" departLane="best" departSpeed="max" from="606788906" to="13432255"/>
    <trip id="veh84" type="veh_passenger" depart="21.70" departLane="best" departSpeed="max" from="-767447707" to="365580551#2"/>
    <trip id="veh85" type="veh_passenger" depart="21.96" departLane="best" departSpeed="max" from="32232651#0" to="-161695547"/>
    <trip id="veh86" type="veh_passenger" depart="22.22" departLane="best" departSpeed="max" from="-13359747#2" to="13315673"/>
    <trip id="veh87" type="veh_passenger" depart="22.48" departLane="best" departSpeed="max" from="-605489230" to="13352499#6"/>
    <trip id="veh88" type="veh_passenger" depart="22.74" departLane="best" departSpeed="max" from="180074676#0" to="172075490#8"/>
    <trip id="veh89" type="veh_passenger" depart="23.00" departLane="best" departSpeed="max" from="764906574" to="-13386999"/>
    <trip id="veh91" type="veh_passenger" depart="23.51" departLane="best" from="405371678#0" to="-31352332#0"/>
    <trip id="veh92" type="veh_passenger" depart="23.77" departLane="best" departSpeed="max" from="-13433531" to="13333526#2"/>
    <trip id="veh93" type="veh_passenger" depart="24.03" departLane="best" departSpeed="max" from="-581413635#2" to="-403600137#3"/>
    <trip id="veh94" type="veh_passenger" depart="24.29" departLane="best" departSpeed="max" from="-158586517#1" to="715812108"/>
    <trip id="veh95" type="veh_passenger" depart="24.55" departLane="best" departSpeed="max" from="-715812109" to="406215511"/>
    <trip id="veh96" type="veh_passenger" depart="24.80" departLane="best" departSpeed="max" from="13340519" to="-13340240#1"/>
    <trip id="veh97" type="veh_passenger" depart="25.06" departLane="best" from="870773612" to="405374500#0"/>
    <trip id="veh98" type="veh_passenger" depart="25.32" departLane="best" departSpeed="max" from="722321988#0" to="715812111"/>
    <trip id="veh99" type="veh_passenger" depart="25.58" departLane="best" departSpeed="max" from="404280194" to="-13468225#2"/>
    <trip id="veh100" type="veh_passenger" depart="25.84" departLane="best" departSpeed="max" from="112723475" to="-180764568#1"/>
    <trip id="veh101" type="veh_passenger" depart="26.10" departLane="best" departSpeed="max" from="-482942975" to="-13343540#1"/>
    <trip id="veh102" type="veh_passenger" depart="26.35" departLane="best" departSpeed="max" from="-405376275" to="864558248"/>
    <trip id="veh103" type="veh_passenger" depart="26.61" departLane="best" departSpeed="max" from="-167701806" to="365562292#6"/>
    <trip id="veh104" type="veh_passenger" depart="26.87" departLane="best" departSpeed="max" from="-716663083" to="13299611#4"/>
    <trip id="veh106" type="veh_passenger" depart="27.39" departLane="best" departSpeed="max" from="13347493#0" to="182964162"/>
    <trip id="veh107" type="veh_passenger" depart="27.65" departLane="best" departSpeed="max" from="-13410341" to="-406211081#1"/>
    <trip id="veh108" type="veh_passenger" depart="27.90" departLane="best" departSpeed="max" from="717052163" to="13433531"/>
    <trip id="veh109" type="veh_passenger" depart="28.16" departLane="best" departSpeed="max" from="13333526#0" to="32232836"/>
    <trip id="veh110" type="veh_passenger" depart="28.42" departLane="best" departSpeed="max" from="-13323716#2" to="13437409#1"/>
    <trip id="veh113" type="veh_passenger" depart="29.20" departLane="best" departSpeed="max" from="-13345082#1" to="-161695546#1"/>
    <trip id="veh114" type="veh_passenger" depart="29.45" departLane="best" departSpeed="max" from="13394648" to="172076622#1"/>
    <trip id="veh115" type="veh_passenger" depart="29.71" departLane="best" departSpeed="max" from="-13464378" to="-13425577#2"/>
    <trip id="veh117" type="veh_passenger" depart="30.23" departLane="best" departSpeed="max" from="13394648" to="13452817#5"/>
    <trip id="veh118" type="veh_passenger" depart="30.49" departLane="best" departSpeed="max" from="-578684521" to="13437409#1"/>
    <trip id="veh119" type="veh_passenger" depart="30.75" departLane="best" departSpeed="max" from="13295872" to="716663082"/>
    <trip id="veh120" type="veh_passenger" depart="31.01" departLane="best" departSpeed="max" from="-13438065#1" to="182577688"/>
    <trip id="veh121" type="veh_passenger" depart="31.26" departLane="best" departSpeed="max" from="-13466566#7" to="13284329"/>
    <trip id="veh123" type="veh_passenger" depart="31.78" departLane="best" departSpeed="max" from="-236591777#5" to="32232836"/>
    <trip id="veh124" type="veh_passenger" depart="32.04" departLane="best" departSpeed="max" from="-13337232#1" to="13341660"/>
    <trip id="veh125" type="veh_passenger" depart="32.30" departLane="best" from="866655240" to="879805044"/>
    <trip id="veh126" type="veh_passenger" depart="32.56" departLane="best" departSpeed="max" from="-13337232#1" to="-180764568#1"/>
    <trip id="veh127" type="veh_passenger" depart="32.81" departLane="best" departSpeed="max" from="-167701806" to="716663082"/>
    <trip id="veh128" type="veh_passenger" depart="33.07" departLane="best" departSpeed="max" from="405572312" to="482941008#1"/>
    <trip id="veh129" type="veh_passenger" depart="33.33" departLane="best" departSpeed="max" from="-405371684#1" to="-13454302#1"/>
    <trip id="veh131" type="veh_passenger" depart="33.85" departLane="best" departSpeed="max" from="13414353" to="866591865"/>
    <trip id="veh133" type="veh_passenger" depart="34.36" departLane="best" departSpeed="max" from="34854095#0" to="-406230520"/>
    <trip id="veh134" type="veh_passenger" depart="34.62" departLane="best" departSpeed="max" from="13468225#0" to="716721754"/>
    <trip id="veh135" type="veh_passenger" depart="34.88" departLane="best" departSpeed="max" from="-13395615#2" to="-13414353"/>
    <trip id="veh136" type="veh_passenger" depart="35.14" departLane="best" departSpeed="max" from="-13377263#2" to="13420598"/>
    <trip id="veh137" type="veh_passenger" depart="35.40" departLane="best" departSpeed="max" from="-172075477#3" to="13447488"/>
    <trip id="veh139" type="veh_passenger" depart="35.91" departLane="best" departSpeed="max" from="13440592" to="-374510740"/>
    <trip id="veh141" type="veh_passenger" depart="36.43" departLane="best" departSpeed="max" from="404280194" to="-13382110#2"/>
    <trip id="veh142" type="veh_passenger" depart="36.69" departLane="best" departSpeed="max" from="-605489230" to="-398208949#2"/>
    <trip id="veh144" type="veh_passenger" depart="37.21" departLane="best" departSpeed="max" from="13442845#0" to="-374510740"/>
    <trip id="veh145" type="veh_passenger" depart="37.46" departLane="best" from="185218255#1" to="13416926#4"/>
    <trip id="veh146" type="veh_passenger" depart="37.72" departLane="best" departSpeed="max" from="-624349645#2" to="-13281496"/>
    <trip id="veh147" type="veh_passenger" depart="37.98" departLane="best" from="-13341443#8" to="518179568#0"/>
    <trip id="veh148" type="veh_passenger" depart="38.24" departLane="best" from="42420525#1" to="13412103"/>
    <trip id="veh149" type="veh_passenger" depart="38.50" departLane="best" departSpeed="max" from="398208952#0" to="13435958"/>
    <trip id="veh150" type="veh_passenger" depart="38.76" departLane="best" departSpeed="max" from="-13409217" to="-13436642"/>
    <trip id="veh151" type="veh_passenger" depart="39.01" departLane="best" departSpeed="max" from="-182577688" to="581413635#2"/>
    <trip id="veh153" type="veh_passenger" depart="39.53" departLane="best" departSpeed="max" from="406488961" to="-180074676#0"/>
    <trip id="veh154" type="veh_passenger" depart="39.79" departLane="best" departSpeed="max" from="-158586517#1" to="-13399037"/>
    <trip id="veh155" type="veh_passenger" depart="40.05" departLane="best" departSpeed="max" from="31352332#0" to="518180735#6"/>
    <trip id="veh156" type="veh_passenger" depart="40.31" departLane="best" departSpeed="max" from="-13410334#1" to="716663078"/>
    <trip id="veh157" type="veh_passenger" depart="40.56" departLane="best" departSpeed="max" from="405374481" to="864558248"/>
    <trip id="veh158" type="veh_passenger" depart="40.82" departLane="best" departSpeed="max" from="32232651#0" to="509282223"/>
    <trip id="veh159" type="veh_passenger" depart="41.08" departLane="best" from="-13290831#0" to="255841217#0"/>
    <trip id="veh160" type="veh_passenger" depart="41.34" departLane="best" departSpeed="max" from="-332153711#1" to="716663078"/>
    <trip id="veh162" type="veh_passenger" depart="41.86" departLane="best" departSpeed="max" from="32232651#0" to="-39276688#0"/>
    <trip id="veh164" type="veh_passenger" depart="42.37" departLane="best" departSpeed="max" from="405385335#0" to="406211060"/>
    <trip id="veh166" type="veh_passenger" depart="42.89" departLane="best" departSpeed="max" from="-716721754" to="-4377289#0"/>
    <trip id="veh168" type="veh_passenger" depart="43.41" departLane="best" departSpeed="max" from="-13288127#1" to="-161695662#0"/>
    <trip id="veh170" type="veh_passenger" depart="43.92" departLane="best" departSpeed="max" from="717052163" to="-403600139"/>
    <trip id="veh171" type="veh_passenger" depart="44.18" departLane="best" departSpeed="max" from="13446279#0" to="13285655"/>
    <trip id="veh172" type="veh_passenger" depart="44.44" departLane="best" departSpeed="max" from="764906574" to="13410334#0"/>
    <trip id="veh173" type="veh_passenger" depart="44.70" departLane="best" departSpeed="max" from="606788906" to="-13414353"/>
    <trip id="veh174" type="veh_passenger" depart="44.96" departLane="best" departSpeed="max" from="722321988#0" to="-158586517#0"/>
    <trip id="veh175" type="veh_passenger" depart="45.22" departLane="best" departSpeed="max" from="715812110" to="-39276688#0"/>
    <trip id="veh176" type="veh_passenger" depart="45.47" departLane="best" departSpeed="max" from="-13377263#2" to="13323713#3"/>
    <trip id="veh178" type="veh_passenger" depart="45.99" departLane="best" departSpeed="max" from="13400999#0" to="13386086#1"/>
    <trip id="veh179" type="veh_passenger" depart="46.25" departLane="best" departSpeed="max" from="-405377541" to="13433314"/>
    <trip id="veh180" type="veh_passenger" depart="46.51" departLane="best" departSpeed="max" from="-161695559#4" to="180202189#2"/>
    <trip id="veh181" type="veh_passenger" depart="46.77" departLane="best" departSpeed="max" from="-100831900" to="715812111"/>
    <trip id="veh182" type="veh_passenger" depart="47.02" departLane="best" departSpeed="max" from="13326361#0" to="182964162"/>
    <trip id="veh183" type="veh_passenger" depart="47.28" departLane="best" from="185720483" to="172075490#1"/>
    <trip id="veh184" type="veh_passenger" depart="47.54" departLane="best" departSpeed="max" from="-405134849#1" to="-13356288#0"/>
    <trip id="veh185" type="veh_passenger" depart="47.80" departLane="best" departSpeed="max" from="13468225#0" to="-626074770#1"/>
    <trip id="veh186" type="veh_passenger" depart="48.06" departLane="best" departSpeed="max" from="-185027319" to="405480276#1"/>
    <trip id="veh187" type="veh_passenger" depart="48.32" departLane="best" departSpeed="max" from="179641667#0" to="-406230520"/>
    <trip id="veh188" type="veh_passenger" depart="48.57" departLane="best" departSpeed="max" from="-182964162" to="13292766"/>
    <trip id="veh189" type="veh_passenger" depart="48.83" departLane="best" departSpeed="max" from="-482942975" to="-406211081#1"/>
    <trip id="veh190" type="veh_passenger" depart="49.09" departLane="best" departSpeed="max" from="-13384184#1" to="13299609#1"/>
    <trip id="veh191" type="veh_passenger" depart="49.35" departLane="best" departSpeed="max" from="606788906" to="172076622#1"/>
    <trip id="veh192" type="veh_passenger" depart="49.61" departLane="best" from="406489003" to="13450444"/>
    <trip id="veh194" type="veh_passenger" depart="50.12" departLane="best" departSpeed="max" from="-100831900" to="-405371322#0"/>
    <trip id="veh195" type="veh_passenger" depart="50.38" departLane="best" departSpeed="max" from="-643831517" to="13433531"/>
    <trip id="veh196" type="veh_passenger" depart="50.64" departLane="best" departSpeed="max" from="13454302#0" to="13347702#0"/>
    <trip id="veh197" type="veh_passenger" depart="50.90" departLane="best" departSpeed="max" from="-715812109" to="-180764568#1"/>
    <trip id="veh198" type="veh_passenger" depart="51.16" departLane="best" departSpeed="max" from="-767447707" to="581413635#2"/>
    <trip id="veh200" type="veh_passenger" depart="51.68" departLane="best" departSpeed="max" from="-13351702#5" to="13395615#2"/>
    <trip id="veh202" type="veh_passenger" depart="52.19" departLane="best" departSpeed="max" from="353238850" to="32232836"/>
    <trip id="veh203" type="veh_passenger" depart="52.45" departLane="best" from="156415220" to="-185962379#2"/>
    <trip id="veh204" type="veh_passenger" depart="52.71" departLane="best" departSpeed="max" from="-13437549" to="-13295310#2"/>
    <trip id="veh205" type="veh_passenger" depart="52.97" departLane="best" departSpeed="max" from="-13468288#1" to="13359747#2"/>
    <trip id="veh206" type="veh_passenger" depart="53.23" departLane="best" departSpeed="max" from="404280194" to="-13365946#1"/>
    <trip id="veh207" type="veh_passenger" depart="53.48" departLane="best" from="-540215589" to="13466566#7"/>
    <trip id="veh208" type="veh_passenger" depart="53.74" departLane="best" departSpeed="max" from="-13437409#1" to="176726245"/>
    <trip id="veh209" type="veh_passenger" depart="54.00" departLane="best" departSpeed="max" from="122900739" to="-31352297#0"/>
    <trip id="veh210" type="veh_passenger" depart="54.26" departLane="best" departSpeed="max" from="13454492#0" to="-13254901#7"/>
    <trip id="veh211" type="veh_passenger" depart="54.52" departLane="best" from="226328500" to="332153711#0"/>
    <trip id="veh212" type="veh_passenger" depart="54.78" departLane="best" departSpeed="max" from="-13371675#1" to="13306495#6"/>
    <trip id="veh213" type="veh_passenger" depart="55.03" departLane="best" departSpeed="max" from="-13427651" to="863790275"/>
    <trip id="veh214" type="veh_passenger" depart="55.29" departLane="best" departSpeed="max" from="13295310#0" to="-13340240#1"/>
    <trip id="veh215" type="veh_passenger" depart="55.55" departLane="best" departSpeed="max" from="-158586517#1" to="405482653"/>
    <trip id="veh216" type="veh_passenger" depart="55.81" departLane="best" departSpeed="max" from="-716665842" to="398204943#0"/>
    <trip id="veh217" type="veh_passenger" depart="56.07" departLane="best" departSpeed="max" from="141008972" to="866591865-AddedOnRampEdge"/>
    <trip id="veh218" type="veh_passenger" depart="56.33" departLane="best" departSpeed="max" from="13394648" to="840806354#2"/>
    <trip id="veh219" type="veh_passenger" depart="56.58" departLane="best" from="406432194#0" to="13448854"/>
    <trip id="veh220" type="veh_passenger" depart="56.84" departLane="best" departSpeed="max" from="179641667#0" to="13383777"/>
    <trip id="veh221" type="veh_passenger" depart="57.10" departLane="best" departSpeed="max" from="398048108#0" to="13416096#7"/>
    <trip id="veh222" type="veh_passenger" depart="57.36" departLane="best" departSpeed="max" from="406488961" to="31353386"/>
    <trip id="veh223" type="veh_passenger" depart="57.62" departLane="best" from="-7994250#2" to="-365562300#0"/>
    <trip id="veh224" type="veh_passenger" depart="57.88" departLane="best" departSpeed="max" from="30647277" to="13399662#1"/>
    <trip id="veh225" type="veh_passenger" depart="58.13" departLane="best" departSpeed="max" from="13437332#0" to="-398208949#2"/>
    <trip id="veh226" type="veh_passenger" depart="58.39" departLane="best" departSpeed="max" from="-13341660" to="-405371322#0"/>
    <trip id="veh228" type="veh_passenger" depart="58.91" departLane="best" departSpeed="max" from="13326361#0" to="-13440592"/>
    <trip id="veh229" type="veh_passenger" depart="59.17" departLane="best" departSpeed="max" from="-13462569" to="175987196#12"/>
    <trip id="veh230" type="veh_passenger" depart="59.43" departLane="best" departSpeed="max" from="172076623" to="-13352516#0"/>
    <trip id="veh231" type="veh_passenger" depart="59.68" departLane="best" departSpeed="max" from="-518180735#7" to="13410345#0"/>
    <trip id="veh232" type="veh_passenger" depart="59.94" departLane="best" departSpeed="max" from="-578684520#1" to="-179642185"/>
    <trip id="veh234" type="veh_passenger" depart="60.46" departLane="best" departSpeed="max" from="13382110#0" to="176726245"/>
    <trip id="veh235" type="veh_passenger" depart="60.72" departLane="best" departSpeed="max" from="405371322#0" to="332153711#0"/>
    <trip id="veh237" type="veh_passenger" depart="61.23" departLane="best" departSpeed="max" from="-39276688#10" to="32232836"/>
    <trip id="veh238" type="veh_passenger" depart="61.49" departLane="best" from="405370466#0" to="862441469"/>
    <trip id="veh240" type="veh_passenger" depart="62.01" departLane="best" departSpeed="max" from="13340240#0" to="13447488"/>
    <trip id="veh241" type="veh_passenger" depart="62.27" departLane="best" departSpeed="max" from="-13448649#2" to="-182577171#6"/>
    <trip id="veh242" type="veh_passenger" depart="62.53" departLane="best" departSpeed="max" from="-690599583" to="-13299609#0"/>
    <trip id="veh243" type="veh_passenger" depart="62.79" departLane="best" departSpeed="max" from="-34855984#2" to="172076622#1"/>
    <trip id="veh244" type="veh_passenger" depart="63.04" departLane="best" departSpeed="max" from="-509282223" to="-13462972#4"/>
    <trip id="veh245" type="veh_passenger" depart="63.30" departLane="best" departSpeed="max" from="-731830163#2" to="-13436642"/>
    <trip id="veh246" type="veh_passenger" depart="63.56" departLane="best" departSpeed="max" from="13436642" to="-13295872"/>
    <trip id="veh247" type="veh_passenger" depart="63.82" departLane="best" departSpeed="max" from="-444337700#1" to="13431609"/>
    <trip id="veh248" type="veh_passenger" depart="64.08" departLane="best" departSpeed="max" from="-13290834#1" to="156415221"/>
    <trip id="veh249" type="veh_passenger" depart="64.34" departLane="best" departSpeed="max" from="-13397954" to="13345082#1"/>
    <trip id="veh250" type="veh_passenger" depart="64.59" departLane="best" departSpeed="max" from="-13315673" to="123570158"/>
    <trip id="veh251" type="veh_passenger" depart="64.85" departLane="best" from="226328501" to="405371684#1"/>
    <trip id="veh252" type="veh_passenger" depart="65.11" departLane="best" from="-161693473#10" to="-13377263#0"/>
    <trip id="veh253" type="veh_passenger" depart="65.37" departLane="best" departSpeed="max" from="-13285655" to="13410341"/>
    <trip id="veh254" type="veh_passenger" depart="65.63" departLane="best" from="9599921#0" to="-723708556#5"/>
    <trip id="veh255" type="veh_passenger" depart="65.89" departLane="best" departSpeed="max" from="13452814" to="351681193"/>
    <trip id="veh256" type="veh_passenger" depart="66.14" departLane="best" departSpeed="max" from="13454249#0" to="32232836"/>
    <trip id="veh258" type="veh_passenger" depart="66.66" departLane="best" departSpeed="max" from="-13285655" to="-13452814"/>
    <trip id="veh259" type="veh_passenger" depart="66.92" departLane="best" departSpeed="max" from="-13384184#1" to="172075479#3"/>