<?xml version="1.0" encoding="UTF-8"?>

<!-- generated on Sun Dec 20 11:21:09 2020 by Eclipse SUMO duarouter Version 1.8.0
<configuration xmlns:xsi="http://www.w3.org/2001/XMLSchema-instance" xsi:noNamespaceSchemaLocation="http://sumo.dlr.de/xsd/duarouterConfiguration.xsd">

    <input>
        <net-file value="osmSanitized.net.xml"/>
        <route-files value="osmSanitizedGaussian.passenger.trips.xml"/>
    </input>

    <output>
        <output-file value="osmSanitizedGaussian.passenger.trips.xml.tmp"/>
        <write-trips value="true"/>
    </output>

    <time>
        <begin value="0"/>
        <end value="3600"/>
    </time>

    <report>
        <no-warnings value="true"/>
        <ignore-errors value="true"/>
        <no-step-log value="true"/>
    </report>

</configuration>
-->

<routes xmlns:xsi="http://www.w3.org/2001/XMLSchema-instance" xsi:noNamespaceSchemaLocation="http://sumo.dlr.de/xsd/routes_file.xsd">
    <vType id="veh_passenger" vClass="passenger"/>
    <trip id="veh0" type="veh_passenger" depart="0.00" departLane="random" departSpeed="max" from="-172075479#3" to="-182964164#0"/>
    <trip id="veh1" type="veh_passenger" depart="0.00" departLane="random" departSpeed="max" from="182577171#2" to="172076622#1"/>
    <trip id="veh2" type="veh_passenger" depart="1.00" departLane="random" departSpeed="max" from="406488961" to="-13378864#0"/>
    <trip id="veh3" type="veh_passenger" depart="1.00" departLane="random" departSpeed="max" from="-13448649#2" to="13383777"/>
    <trip id="veh5" type="veh_passenger" depart="2.00" departLane="random" departSpeed="max" from="13452814" to="13412103"/>
    <trip id="veh7" type="veh_passenger" depart="3.00" departLane="random" departSpeed="max" from="32232651#0" to="178102878#1"/>
    <trip id="veh8" type="veh_passenger" depart="4.00" departLane="random" departSpeed="max" from="-13356917#3" to="-13386999"/>
    <trip id="veh9" type="veh_passenger" depart="4.00" departLane="random" departSpeed="max" from="404280194" to="13447488"/>
    <trip id="veh10" type="veh_passenger" depart="5.00" departLane="random" departSpeed="max" from="13323713#0" to="864558248"/>
    <trip id="veh11" type="veh_passenger" depart="5.00" departLane="random" departSpeed="max" from="398048108#0" to="13452817#5"/>
    <trip id="veh12" type="veh_passenger" depart="6.00" departLane="random" from="405371678#0" to="13433531"/>
    <trip id="veh13" type="veh_passenger" depart="6.00" departLane="random" departSpeed="max" from="172076623" to="-13326361#0"/>
    <trip id="veh14" type="veh_passenger" depart="7.00" departLane="random" departSpeed="max" from="13440592" to="100831900"/>
    <trip id="veh15" type="veh_passenger" depart="7.00" departLane="random" departSpeed="max" from="-405371684#1" to="-180074676#0"/>
    <trip id="veh16" type="veh_passenger" depart="8.00" departLane="random" departSpeed="max" from="-167701806" to="716665842"/>
    <trip id="veh17" type="veh_passenger" depart="8.00" departLane="random" departSpeed="max" from="13452814" to="13448649#2"/>
    <trip id="veh18" type="veh_passenger" depart="9.00" departLane="random" departSpeed="max" from="-13416096#7" to="123570158"/>
    <trip id="veh20" type="veh_passenger" depart="10.00" departLane="random" departSpeed="max" from="404280194" to="34855984#0"/>
    <trip id="veh21" type="veh_passenger" depart="10.00" departLane="random" departSpeed="max" from="-236591777#5" to="-398048108#1"/>
    <trip id="veh22" type="veh_passenger" depart="11.00" departLane="random" departSpeed="max" from="-13446186" to="717052162#1"/>
    <trip id="veh23" type="veh_passenger" depart="11.00" departLane="random" departSpeed="max" from="405385335#0" to="-509082221"/>
    <trip id="veh24" type="veh_passenger" depart="12.00" departLane="random" departSpeed="max" from="13454302#0" to="13284329"/>
    <trip id="veh25" type="veh_passenger" depart="12.00" departLane="random" departSpeed="max" from="509082223" to="13341660"/>
    <trip id="veh26" type="veh_passenger" depart="13.00" departLane="random" departSpeed="max" from="-167701806" to="-31352297#0"/>
    <trip id="veh27" type="veh_passenger" depart="13.00" departLane="random" departSpeed="max" from="13382110#0" to="578684521"/>
    <trip id="veh28" type="veh_passenger" depart="14.00" departLane="random" departSpeed="max" from="-482941008#4" to="-182577171#6"/>
    <trip id="veh29" type="veh_passenger" depart="14.00" departLane="random" from="866594332" to="13386086#1"/>
    <trip id="veh31" type="veh_passenger" depart="15.00" departLane="random" departSpeed="max" from="-13332936" to="123570158"/>
    <trip id="veh32" type="veh_passenger" depart="16.00" departLane="random" departSpeed="max" from="-13280224#3" to="185027319"/>
    <trip id="veh33" type="veh_passenger" depart="16.00" departLane="random" departSpeed="max" from="159669984#0" to="13410334#0"/>
    <trip id="veh34" type="veh_passenger" depart="17.00" departLane="random" departSpeed="max" from="-716663083" to="862441469"/>
    <trip id="veh35" type="veh_passenger" depart="17.00" departLane="random" departSpeed="max" from="405385335#0" to="-374510740"/>
    <trip id="veh38" type="veh_passenger" depart="19.00" departLane="random" departSpeed="max" from="30647277" to="13410341"/>
    <trip id="veh39" type="veh_passenger" depart="19.00" departLane="random" departSpeed="max" from="31352297#0" to="13409217"/>
    <trip id="veh40" type="veh_passenger" depart="20.00" departLane="random" departSpeed="max" from="-100831900" to="-607517414"/>
    <trip id="veh41" type="veh_passenger" depart="20.00" departLane="random" from="405571048" to="405371684#1"/>
    <trip id="veh42" type="veh_passenger" depart="21.00" departLane="random" departSpeed="max" from="-182577688" to="-13343540#1"/>
    <trip id="veh43" type="veh_passenger" depart="21.00" departLane="random" departSpeed="max" from="-13351702#5" to="13371675#1"/>
    <trip id="veh44" type="veh_passenger" depart="22.00" departLane="random" departSpeed="max" from="30647277" to="-13436642"/>
    <trip id="veh45" type="veh_passenger" depart="22.00" departLane="random" departSpeed="max" from="-840806354#2" to="13416926#4"/>
    <trip id="veh46" type="veh_passenger" depart="23.00" departLane="random" departSpeed="max" from="-167701806" to="42420525#1-AddedOnRampEdge"/>
    <trip id="veh47" type="veh_passenger" depart="23.00" departLane="random" departSpeed="max" from="-605489230" to="-180074676#0"/>
    <trip id="veh49" type="veh_passenger" depart="24.00" departLane="random" from="866591865" to="161693487#0"/>
    <trip id="veh50" type="veh_passenger" depart="25.00" departLane="random" departSpeed="max" from="-351681193" to="13437549"/>
    <trip id="veh51" type="veh_passenger" depart="25.00" departLane="random" departSpeed="max" from="-13462569" to="-182577171#6"/>
    <trip id="veh52" type="veh_passenger" depart="26.00" departLane="random" departSpeed="max" from="-13333528#3" to="13466566#7"/>
    <trip id="veh53" type="veh_passenger" depart="26.00" departLane="random" departSpeed="max" from="-13447488" to="-13437548"/>
    <trip id="veh54" type="veh_passenger" depart="27.00" departLane="random" departSpeed="max" from="606788906" to="13432255"/>
    <trip id="veh55" type="veh_passenger" depart="27.00" departLane="random" departSpeed="max" from="32232651#0" to="-161695547"/>
    <trip id="veh56" type="veh_passenger" depart="28.00" departLane="random" departSpeed="max" from="-13359747#2" to="13315673"/>
    <trip id="veh57" type="veh_passenger" depart="28.00" departLane="random" departSpeed="max" from="180074676#0" to="172075490#8"/>
    <trip id="veh58" type="veh_passenger" depart="29.00" departLane="random" from="405371678#0" to="-31352332#0"/>
    <trip id="veh59" type="veh_passenger" depart="29.00" departLane="random" departSpeed="max" from="-13433531" to="13333526#2"/>
    <trip id="veh60" type="veh_passenger" depart="30.00" departLane="random" departSpeed="max" from="-581413635#2" to="-403600137#3"/>
    <trip id="veh61" type="veh_passenger" depart="30.00" departLane="random" departSpeed="max" from="-158586517#1" to="715812108"/>
    <trip id="veh62" type="veh_passenger" depart="31.00" departLane="random" departSpeed="max" from="-715812109" to="406215511"/>
    <trip id="veh63" type="veh_passenger" depart="31.00" departLane="random" departSpeed="max" from="13340519" to="-13340240#1"/>
    <trip id="veh64" type="veh_passenger" depart="32.00" departLane="random" from="870773612" to="405374500#0"/>
    <trip id="veh65" type="veh_passenger" depart="32.00" departLane="random" departSpeed="max" from="404280194" to="-13468225#2"/>
    <trip id="veh66" type="veh_passenger" depart="33.00" departLane="random" departSpeed="max" from="112723475" to="-180764568#1"/>
    <trip id="veh67" type="veh_passenger" depart="33.00" departLane="random" departSpeed="max" from="-405376275" to="864558248"/>
    <trip id="veh68" type="veh_passenger" depart="34.00" departLane="random" departSpeed="max" from="-167701806" to="365562292#6"/>
    <trip id="veh69" type="veh_passenger" depart="34.00" departLane="random" departSpeed="max" from="-716663083" to="13299611#4"/>
    <trip id="veh71" type="veh_passenger" depart="35.00" departLane="random" departSpeed="max" from="13347493#0" to="182964162"/>
    <trip id="veh72" type="veh_passenger" depart="36.00" departLane="random" departSpeed="max" from="-13410341" to="-406211081#1"/>
    <trip id="veh73" type="veh_passenger" depart="36.00" departLane="random" departSpeed="max" from="-13323716#2" to="13437409#1"/>
    <trip id="veh76" type="veh_passenger" depart="38.00" departLane="random" departSpeed="max" from="-13345082#1" to="-161695546#1"/>
    <trip id="veh77" type="veh_passenger" depart="38.00" departLane="random" departSpeed="max" from="-13464378" to="-13425577#2"/>
    <trip id="veh79" type="veh_passenger" depart="39.00" departLane="random" departSpeed="max" from="-578684521" to="13437409#1"/>
    <trip id="veh80" type="veh_passenger" depart="40.00" departLane="random" departSpeed="max" from="13295872" to="716663082"/>
    <trip id="veh81" type="veh_passenger" depart="40.00" departLane="random" departSpeed="max" from="-13438065#1" to="182577688"/>
    <trip id="veh83" type="veh_passenger" depart="41.00" departLane="random" from="866655240" to="879805044"/>
    <trip id="veh84" type="veh_passenger" depart="42.00" departLane="random" departSpeed="max" from="-13337232#1" to="-180764568#1"/>
    <trip id="veh85" type="veh_passenger" depart="42.00" departLane="random" departSpeed="max" from="-167701806" to="716663082"/>
    <trip id="veh86" type="veh_passenger" depart="43.00" departLane="random" departSpeed="max" from="-405371684#1" to="-13454302#1"/>
    <trip id="veh88" type="veh_passenger" depart="44.00" departLane="random" departSpeed="max" from="13468225#0" to="716721754"/>
    <trip id="veh89" type="veh_passenger" depart="44.00" departLane="random" departSpeed="max" from="-13395615#2" to="-13414353"/>
    <trip id="veh90" type="veh_passenger" depart="45.00" departLane="random" departSpeed="max" from="-172075477#3" to="13447488"/>
    <trip id="veh92" type="veh_passenger" depart="46.00" departLane="random" departSpeed="max" from="404280194" to="-13382110#2"/>
    <trip id="veh93" type="veh_passenger" depart="46.00" departLane="random" departSpeed="max" from="-605489230" to="-398208949#2"/>
    <trip id="veh95" type="veh_passenger" depart="47.00" departLane="random" departSpeed="max" from="13442845#0" to="-374510740"/>
    <trip id="veh96" type="veh_passenger" depart="48.00" departLane="random" from="42420525#1" to="13412103"/>
    <trip id="veh97" type="veh_passenger" depart="48.00" departLane="random" departSpeed="max" from="-13409217" to="-13436642"/>
    <trip id="veh98" type="veh_passenger" depart="49.00" departLane="random" departSpeed="max" from="-182577688" to="581413635#2"/>
    <trip id="veh100" type="veh_passenger" depart="50.00" departLane="random" departSpeed="max" from="406488961" to="-180074676#0"/>
    <trip id="veh101" type="veh_passenger" depart="50.00" departLane="random" departSpeed="max" from="31352332#0" to="518180735#6"/>
    <trip id="veh102" type="veh_passenger" depart="51.00" departLane="random" departSpeed="max" from="-13410334#1" to="716663078"/>
    <trip id="veh103" type="veh_passenger" depart="51.00" departLane="random" departSpeed="max" from="405374481" to="864558248"/>
    <trip id="veh105" type="veh_passenger" depart="52.00" departLane="random" departSpeed="max" from="32232651#0" to="-39276688#0"/>
    <trip id="veh107" type="veh_passenger" depart="53.00" departLane="random" departSpeed="max" from="405385335#0" to="406211060"/>
    <trip id="veh111" type="veh_passenger" depart="55.00" departLane="random" departSpeed="max" from="717052163" to="-403600139"/>
    <trip id="veh112" type="veh_passenger" depart="56.00" departLane="random" departSpeed="max" from="13446279#0" to="13285655"/>
    <trip id="veh114" type="veh_passenger" depart="57.00" departLane="random" departSpeed="max" from="-405377541" to="13433314"/>
    <trip id="veh115" type="veh_passenger" depart="57.00" departLane="random" departSpeed="max" from="-100831900" to="715812111"/>
    <trip id="veh116" type="veh_passenger" depart="58.00" departLane="random" departSpeed="max" from="13326361#0" to="182964162"/>
    <trip id="veh117" type="veh_passenger" depart="58.00" departLane="random" from="185720483" to="172075490#1"/>
    <trip id="veh118" type="veh_passenger" depart="59.00" departLane="random" departSpeed="max" from="-405134849#1" to="-13356288#0"/>
    <trip id="veh119" type="veh_passenger" depart="59.00" departLane="random" departSpeed="max" from="-185027319" to="405480276#1"/>
    <trip id="veh120" type="veh_passenger" depart="60.00" departLane="random" departSpeed="max" from="-482942975" to="-406211081#1"/>
    <trip id="veh121" type="veh_passenger" depart="60.00" departLane="random" departSpeed="max" from="606788906" to="172076622#1"/>
    <trip id="veh123" type="veh_passenger" depart="61.00" departLane="random" departSpeed="max" from="-100831900" to="-405371322#0"/>
    <trip id="veh124" type="veh_passenger" depart="62.00" departLane="random" departSpeed="max" from="13454302#0" to="13347702#0"/>
    <trip id="veh126" type="veh_passenger" depart="63.00" departLane="random" departSpeed="max" from="-13351702#5" to="13395615#2"/>
    <trip id="veh128" type="veh_passenger" depart="64.00" departLane="random" from="156415220" to="-185962379#2"/>
    <trip id="veh129" type="veh_passenger" depart="64.00" departLane="random" departSpeed="max" from="-13437549" to="-13295310#2"/>
    <trip id="veh130" type="veh_passenger" depart="65.00" departLane="random" departSpeed="max" from="404280194" to="-13365946#1"/>
    <trip id="veh131" type="veh_passenger" depart="65.00" departLane="random" from="-540215589" to="13466566#7"/>
    <trip id="veh132" type="veh_passenger" depart="66.00" departLane="random" departSpeed="max" from="122900739" to="-31352297#0"/>
    <trip id="veh133" type="veh_passenger" depart="66.00" departLane="random" departSpeed="max" from="13454492#0" to="-13254901#7"/>
    <trip id="veh134" type="veh_passenger" depart="67.00" departLane="random" departSpeed="max" from="-13427651" to="863790275"/>
    <trip id="veh135" type="veh_passenger" depart="67.00" departLane="random" departSpeed="max" from="13295310#0" to="-13340240#1"/>
    <trip id="veh136" type="veh_passenger" depart="68.00" departLane="random" departSpeed="max" from="-158586517#1" to="405482653"/>
    <trip id="veh137" type="veh_passenger" depart="68.00" departLane="random" from="406432194#0" to="13448854"/>
    <trip id="veh138" type="veh_passenger" depart="69.00" departLane="random" departSpeed="max" from="179641667#0" to="13383777"/>
    <trip id="veh139" type="veh_passenger" depart="69.00" departLane="random" departSpeed="max" from="398048108#0" to="13416096#7"/>
    <trip id="veh140" type="veh_passenger" depart="70.00" departLane="random" departSpeed="max" from="406488961" to="31353386"/>
    <trip id="veh141" type="veh_passenger" depart="70.00" departLane="random" from="-7994250#2" to="-365562300#0"/>
    <trip id="veh142" type="veh_passenger" depart="71.00" departLane="random" departSpeed="max" from="30647277" to="13399662#1"/>
    <trip id="veh143" type="veh_passenger" depart="71.00" departLane="random" departSpeed="max" from="-13341660" to="-405371322#0"/>
    <trip id="veh145" type="veh_passenger" depart="72.00" departLane="random" departSpeed="max" from="13326361#0" to="-13440592"/>
    <trip id="veh146" type="veh_passenger" depart="73.00" departLane="random" departSpeed="max" from="-578684520#1" to="-179642185"/>
    <trip id="veh148" type="veh_passenger" depart="74.00" departLane="random" departSpeed="max" from="405371322#0" to="332153711#0"/>
    <trip id="veh150" type="veh_passenger" depart="75.00" departLane="random" departSpeed="max" from="-13448649#2" to="-182577171#6"/>
    <trip id="veh151" type="veh_passenger" depart="75.00" departLane="random" departSpeed="max" from="-690599583" to="-13299609#0"/>
    <trip id="veh152" type="veh_passenger" depart="76.00" departLane="random" departSpeed="max" from="-34855984#2" to="172076622#1"/>
    <trip id="veh153" type="veh_passenger" depart="76.00" departLane="random" departSpeed="max" from="-509282223" to="-13462972#4"/>
    <trip id="veh154" type="veh_passenger" depart="77.00" departLane="random" departSpeed="max" from="-731830163#2" to="-13436642"/>
    <trip id="veh155" type="veh_passenger" depart="77.00" departLane="random" departSpeed="max" from="13436642" to="-13295872"/>
    <trip id="veh156" type="veh_passenger" depart="78.00" departLane="random" departSpeed="max" from="-444337700#1" to="13431609"/>
    <trip id="veh157" type="veh_passenger" depart="78.00" departLane="random" departSpeed="max" from="-13290834#1" to="156415221"/>
    <trip id="veh158" type="veh_passenger" depart="79.00" departLane="random" departSpeed="max" from="-13315673" to="123570158"/>
    <trip id="veh159" type="veh_passenger" depart="79.00" departLane="random" from="226328501" to="405371684#1"/>
    <trip id="veh160" type="veh_passenger" depart="80.00" departLane="random" from="9599921#0" to="-723708556#5"/>
    <trip id="veh161" type="veh_passenger" depart="80.00" departLane="random" departSpeed="max" from="13452814" to="351681193"/>
    <trip id="veh162" type="veh_passenger" depart="81.00" departLane="random" departSpeed="max" from="13454249#0" to="32232836"/>
    <trip id="veh164" type="veh_passenger" depart="82.00" departLane="random" departSpeed="max" from="-13384184#1" to="172075479#3"/>
    <trip id="veh165" type="veh_passenger" depart="82.00" departLane="random" departSpeed="max" from="13356288#0" to="-182577171#6"/>
    <trip id="veh166" type="veh_passenger" depart="83.00" departLane="random" departSpeed="max" from="167701345#0" to="332153711#0"/>
    <trip id="veh167" type="veh_passenger" depart="83.00" departLane="random" from="186220971#2" to="-13414353"/>
    <trip id="veh169" type="veh_passenger" depart="84.00" departLane="random" departSpeed="max" from="-185027319" to="172076622#1"/>
    <trip id="veh171" type="veh_passenger" depart="85.00" departLane="random" departSpeed="max" from="174818289#0" to="-13370538#1"/>
    <trip id="veh172" type="veh_passenger" depart="86.00" departLane="random" departSpeed="max" from="161695662#0" to="13466443#3"/>
    <trip id="veh173" type="veh_passenger" depart="86.00" departLane="random" departSpeed="max" from="404280194" to="13446186"/>
    <trip id="veh174" type="veh_passenger" depart="87.00" departLane="random" departSpeed="max" from="-13383772" to="864558248"/>
    <trip id="veh176" type="veh_passenger" depart="88.00" departLane="random" departSpeed="max" from="404280194" to="405134849#0"/>
    <trip id="veh178" type="veh_passenger" depart="89.00" departLane="random" departSpeed="max" from="13440592" to="405371684#1"/>
    <trip id="veh179" type="veh_passenger" depart="89.00" departLane="random" departSpeed="max" from="13326361#0" to="13371675#1"/>
    <trip id="veh180" type="veh_passenger" depart="90.00" departLane="random" departSpeed="max" from="-690599583" to="236591777#1"/>
    <trip id="veh181" type="veh_passenger" depart="90.00" departLane="random" departSpeed="max" from="-167701806" to="405484858"/>
    <trip id="veh182" type="veh_passenger" depart="91.00" departLane="random" departSpeed="max" from="398048108#0" to="-13377275#2"/>
    <trip id="veh183" type="veh_passenger" depart="91.00" departLane="random" departSpeed="max" from="-722321988#6" to="13448649#2"/>
    <trip id="veh184" type="veh_passenger" depart="92.00" departLane="random" departSpeed="max" from="404280194" to="-159669972#0"/>
    <trip id="veh185" type="veh_passenger" depart="92.00" departLane="random" departSpeed="max" from="-13446186" to="398204943#0"/>
    <trip id="veh186" type="veh_passenger" depart="93.00" departLane="random" departSpeed="max" from="-351681193" to="509282223"/>
    <trip id="veh187" type="veh_passenger" depart="93.00" departLane="random" departSpeed="max" from="172076623" to="-398208949#2"/>
    <trip id="veh188" type="veh_passenger" depart="94.00" departLane="random" departSpeed="max" from="-13280223#18" to="734604565-AddedOnRampEdge"/>
    <trip id="veh189" type="veh_passenger" depart="94.00" departLane="random" departSpeed="max" from="-13351702#5" to="183100161"/>
    <trip id="veh191" type="veh_passenger" depart="95.00" departLane="random" departSpeed="max" from="186220860" to="-626074770#1"/>
    <trip id="veh192" type="veh_passenger" depart="96.00" departLane="random" departSpeed="max" from="172076623" to="-398208949#2"/>
    <trip id="veh193" type="veh_passenger" depart="96.00" departLane="random" departSpeed="max" from="-158586517#1" to="-13425577#2"/>
    <trip id="veh194" type="veh_passenger" depart="97.00" departLane="random" departSpeed="max" from="-13435958" to="-13425577#2"/>
    <trip id="veh195" type="veh_passenger" depart="97.00" departLane="random" departSpeed="max" from="-13433158#5" to="-182577171#6"/>
    <trip id="veh196" type="veh_passenger" depart="98.00" departLane="random" departSpeed="max" from="-13431609" to="-13284325#0"/>
    <trip id="veh197" type="veh_passenger" depart="98.00" departLane="random" from="723731495" to="13420598"/>
    <trip id="veh198" type="veh_passenger" depart="99.00" departLane="random" departSpeed="max" from="167701345#0" to="-13436642"/>
    <trip id="veh199" type="veh_passenger" depart="99.00" departLane="random" departSpeed="max" from="-767447707" to="13325140"/>
    <trip id="veh200" type="veh_passenger" depart="100.00" departLane="random" departSpeed="max" from="-13433158#5" to="-13340240#1"/>
    <trip id="veh201" type="veh_passenger" depart="100.00" departLane="random" departSpeed="max" from="606788906" to="13359953#0"/>
    <trip id="veh202" type="veh_passenger" depart="101.00" departLane="random" departSpeed="max" from="-13337232#1" to="13466566#7"/>
    <trip id="veh204" type="veh_passenger" depart="102.00" departLane="random" from="866532624" to="-13416092"/>
    <trip id="veh205" type="veh_passenger" depart="102.00" departLane="random" departSpeed="max" from="30647277" to="13448441"/>
    <trip id="veh207" type="veh_passenger" depart="103.00" departLane="random" from="862954171#1-AddedOnRampEdge" to="-4377289#0"/>
    <trip id="veh208" type="veh_passenger" depart="104.00" departLane="random" departSpeed="max" from="13432247#0" to="13448649#2"/>
    <trip id="veh209" type="veh_passenger" depart="104.00" departLane="random" departSpeed="max" from="182964164#0" to="731830163#2"/>
    <trip id="veh210" type="veh_passenger" depart="105.00" departLane="random" departSpeed="max" from="13462972#4" to="-13454302#1"/>
    <trip id="veh211" type="veh_passenger" depart="105.00" departLane="random" departSpeed="max" from="-13425492" to="-13365946#1"/>
    <trip id="veh212" type="veh_passenger" depart="106.00" departLane="random" departSpeed="max" from="172076623" to="13337232#1"/>
    <trip id="veh213" type="veh_passenger" depart="106.00" departLane="random" departSpeed="max" from="161695547" to="715812108"/>
    <trip id="veh215" type="veh_passenger" depart="107.00" departLane="random" departSpeed="max" from="13462972#4" to="716663082"/>
    <trip id="veh216" type="veh_passenger" depart="108.00" departLane="random" departSpeed="max" from="-605489230" to="13412103"/>
    <trip id="veh217" type="veh_passenger" depart="108.00" departLane="random" from="13452491#0" to="641705362"/>
    <trip id="veh218" type="veh_passenger" depart="109.00" departLane="random" departSpeed="max" from="186585804#0" to="13432255"/>
    <trip id="veh219" type="veh_passenger" depart="109.00" departLane="random" departSpeed="max" from="-172169832#1" to="-13432247#1"/>
    <trip id="veh220" type="veh_passenger" depart="110.00" departLane="random" departSpeed="max" from="122900739" to="-13370932#0"/>
    <trip id="veh221" type="veh_passenger" depart="110.00" departLane="random" departSpeed="max" from="-13299609#2" to="13315673"/>
    <trip id="veh224" type="veh_passenger" depart="112.00" departLane="random" departSpeed="max" from="509082223" to="-159669972#0"/>
    <trip id="veh227" type="veh_passenger" depart="113.00" departLane="random" departSpeed="max" from="-332153711#1" to="175987196#12"/>
    <trip id="veh228" type="veh_passenger" depart="114.00" departLane="random" departSpeed="max" from="-172169832#1" to="731830163#2"/>
    <trip id="veh229" type="veh_passenger" depart="114.00" departLane="random" from="32232834" to="13416926#4"/>
    <trip id="veh230" type="veh_passenger" depart="115.00" departLane="random" departSpeed="max" from="-716663083" to="-509082221"/>
    <trip id="veh232" type="veh_passenger" depart="116.00" departLane="random" from="862934679" to="161695699#1"/>
    <trip id="veh233" type="veh_passenger" depart="116.00" departLane="random" departSpeed="max" from="30647197" to="-179641667#1"/>
    <trip id="veh234" type="veh_passenger" depart="117.00" departLane="random" departSpeed="max" from="-715688069" to="178102878#1"/>
    <trip id="veh235" type="veh_passenger" depart="117.00" departLane="random" departSpeed="max" from="-13383772" to="864558248"/>
    <trip id="veh236" type="veh_passenger" depart="118.00" departLane="random" from="864051443" to="685641212"/>
    <trip id="veh237" type="veh_passenger" depart="118.00" departLane="random" departSpeed="max" from="-717052162#1" to="-13416092"/>
    <trip id="veh240" type="veh_passenger" depart="120.00" departLane="random" from="55904292" to="13384184#1"/>
    <trip id="veh242" type="veh_passenger" depart="121.00" departLane="random" departSpeed="max" from="-172075479#3" to="38331297#1"/>
    <trip id="veh243" type="veh_passenger" depart="121.00" departLane="random" departSpeed="max" from="-578684520#1" to="716663082"/>
    <trip id="veh244" type="veh_passenger" depart="122.00" departLane="random" departSpeed="max" from="13283458#1" to="405134849#0"/>
    <trip id="veh245" type="veh_passenger" depart="122.00" departLane="random" departSpeed="max" from="-172075490#8" to="-406217531#2"/>
    <trip id="veh246" type="veh_passenger" depart="123.00" departLane="random" departSpeed="max" from="13382288#0" to="879805044"/>
    <trip id="veh248" type="veh_passenger" depart="124.00" departLane="random" departSpeed="max" from="13326361#0" to="-717052163"/>
    <trip id="veh249" type="veh_passenger" depart="124.00" departLane="random" from="13341443#2" to="13412103"/>
    <trip id="veh250" type="veh_passenger" depart="125.00" departLane="random" departSpeed="max" from="-716663083" to="-581413635#0"/>
    <trip id="veh251" type="veh_passenger" depart="125.00" departLane="random" departSpeed="max" from="13370538#0" to="-186585803"/>
    <trip id="veh254" type="veh_passenger" depart="127.00" departLane="random" departSpeed="max" from="13468225#0" to="405134849#0"/>
    <trip id="veh255" type="veh_passenger" depart="127.00" departLane="random" departSpeed="max" from="764906574" to="13378103#7"/>
    <trip id="veh256" type="veh_passenger" depart="128.00" departLane="random" departSpeed="max" from="-13294713" to="13383772"/>
    <trip id="veh257" type="veh_passenger" depart="128.00" departLane="random" departSpeed="max" from="405385335#0" to="13325140"/>
    <trip id="veh259" type="veh_passenger" depart="129.00" departLane="random" departSpeed="max" from="-351681193" to="175987196#12"/>
    <trip id="veh260" type="veh_passenger" depart="130.00" departLane="random" from="405134847" to="406211060"/>
    <trip id="veh261" type="veh_passenger" depart="130.00" departLane="random" departSpeed="max" from="-405376275" to="-517465358"/>
    <trip id="veh263" type="veh_passenger" depart="131.00" departLane="random" departSpeed="max" from="405385335#0" to="-13308720"/>
    <trip id="veh264" type="veh_passenger" depart="132.00" departLane="random" departSpeed="max" from="-13333526#2" to="13466566#7"/>
    <trip id="veh265" type="veh_passenger" depart="132.00" departLane="random" departSpeed="max" from="536120132#0" to="879805044"/>
    <trip id="veh266" type="veh_passenger" depart="133.00" departLane="random" departSpeed="max" from="186220860" to="13323713#2"/>
    <trip id="veh267" type="veh_passenger" depart="133.00" departLane="random" departSpeed="max" from="-13359953#2" to="13467791"/>
    <trip id="veh268" type="veh_passenger" depart="134.00" departLane="random" departSpeed="max" from="405385335#0" to="13332936"/>
    <trip id="veh269" type="veh_passenger" depart="134.00" departLane="random" departSpeed="max" from="165555571" to="605489230"/>
    <trip id="veh270" type="veh_passenger" depart="135.00" departLane="random" departSpeed="max" from="-174818289#3" to="123570158"/>
    <trip id="veh271" type="veh_passenger" depart="135.00" departLane="random" departSpeed="max" from="13356288#0" to="38998656#1"/>
    <trip id="veh272" type="veh_passenger" depart="136.00" departLane="random" departSpeed="max" from="-13420598" to="-13370932#0"/>