<?xml version="1.0" encoding="UTF-8"?>

<!-- generated on Sun Dec 20 17:39:46 2020 by Eclipse SUMO duarouter Version 1.8.0
<configuration xmlns:xsi="http://www.w3.org/2001/XMLSchema-instance" xsi:noNamespaceSchemaLocation="http://sumo.dlr.de/xsd/duarouterConfiguration.xsd">

    <input>
        <net-file value="osm.net.xml"/>
        <route-files value="osm.bus.trips.xml"/>
    </input>

    <output>
        <output-file value="osm.bus.trips.xml.tmp"/>
        <write-trips value="true"/>
    </output>

    <time>
        <begin value="0"/>
        <end value="10800"/>
    </time>

    <report>
        <no-warnings value="true"/>
        <ignore-errors value="true"/>
        <no-step-log value="true"/>
    </report>

</configuration>
-->

<routes xmlns:xsi="http://www.w3.org/2001/XMLSchema-instance" xsi:noNamespaceSchemaLocation="http://sumo.dlr.de/xsd/routes_file.xsd">
    <vType id="bus_bus" vClass="bus"/>
    <trip id="bus0" type="bus_bus" depart="0.00" departLane="best" from="149003102#13" to="-13300309#2"/>
    <trip id="bus1" type="bus_bus" depart="10.00" departLane="best" from="-165880112#1" to="-165560828#4"/>
    <trip id="bus2" type="bus_bus" depart="20.00" departLane="best" from="37684096#3" to="-13281948#1"/>
    <trip id="bus3" type="bus_bus" depart="30.00" departLane="best" from="354959495#1" to="165560828#5"/>
    <trip id="bus4" type="bus_bus" depart="40.00" departLane="best" departSpeed="max" from="165568131#0" to="-13324034#1"/>
    <trip id="bus5" type="bus_bus" depart="50.00" departLane="best" departSpeed="max" from="-13370598#4" to="-165568113#10"/>
    <trip id="bus6" type="bus_bus" depart="60.00" departLane="best" from="-13394275#2" to="-165880074#6"/>
    <trip id="bus7" type="bus_bus" depart="70.00" departLane="best" departSpeed="max" from="148455912#0" to="-398361687"/>
    <trip id="bus8" type="bus_bus" depart="80.00" departLane="best" departSpeed="max" from="-165838930" to="524778174"/>
    <trip id="bus9" type="bus_bus" depart="90.00" departLane="best" from="150945296#0" to="13446430#14"/>
    <trip id="bus10" type="bus_bus" depart="100.00" departLane="best" from="-13470894#5" to="-398417149#1"/>
    <trip id="bus11" type="bus_bus" depart="110.00" departLane="best" from="81307782#5" to="148356757"/>
    <trip id="bus12" type="bus_bus" depart="120.00" departLane="best" departSpeed="max" from="-165568096#7" to="-13310952#5"/>
    <trip id="bus13" type="bus_bus" depart="130.00" departLane="best" from="398364662" to="-288116300#2"/>
    <trip id="bus14" type="bus_bus" depart="140.00" departLane="best" from="-165792352#1" to="-165772564#3"/>
    <trip id="bus16" type="bus_bus" depart="160.00" departLane="best" from="-13407601#3" to="-623553697#0"/>
    <trip id="bus17" type="bus_bus" depart="170.00" departLane="best" departSpeed="max" from="13321499#0" to="-149009294#3"/>
    <trip id="bus18" type="bus_bus" depart="180.00" departLane="best" from="404954661#1" to="398361680"/>
    <trip id="bus19" type="bus_bus" depart="190.00" departLane="best" from="-185735929#5" to="148356701"/>
    <trip id="bus20" type="bus_bus" depart="200.00" departLane="best" from="13454318#4" to="-13458349#5"/>
    <trip id="bus21" type="bus_bus" depart="210.00" departLane="best" from="398364719" to="606824621#2"/>
    <trip id="bus22" type="bus_bus" depart="220.00" departLane="best" from="-165792360" to="398361716"/>
    <trip id="bus23" type="bus_bus" depart="230.00" departLane="best" from="-643327597#1" to="-159762584#5"/>
    <trip id="bus24" type="bus_bus" depart="240.00" departLane="best" departSpeed="max" from="859649355" to="150913651#10"/>
    <trip id="bus25" type="bus_bus" depart="250.00" departLane="best" from="-13419364#5" to="-165560855#4"/>
    <trip id="bus26" type="bus_bus" depart="260.00" departLane="best" from="-159117468#5" to="-742821929"/>
    <trip id="bus27" type="bus_bus" depart="270.00" departLane="best" from="-759240591#4" to="398231658#0"/>
    <trip id="bus28" type="bus_bus" depart="280.00" departLane="best" departSpeed="max" from="13382998#0" to="-13327158#0"/>
    <trip id="bus29" type="bus_bus" depart="290.00" departLane="best" from="-509312791#4" to="-13335821"/>
    <trip id="bus30" type="bus_bus" depart="300.00" departLane="best" from="607284021#9" to="859343581"/>
    <trip id="bus31" type="bus_bus" depart="310.00" departLane="best" from="-13461424#2" to="-167920394#0"/>
    <trip id="bus32" type="bus_bus" depart="320.00" departLane="best" from="651573513#7" to="13408637#2"/>
    <trip id="bus34" type="bus_bus" depart="340.00" departLane="best" from="13439859#2" to="159608045#0"/>
    <trip id="bus35" type="bus_bus" depart="350.00" departLane="best" from="-165665930#2" to="-13419364#5"/>
    <trip id="bus36" type="bus_bus" depart="360.00" departLane="best" departSpeed="max" from="13349026#0" to="518268777#6"/>
    <trip id="bus37" type="bus_bus" depart="370.00" departLane="best" departSpeed="max" from="-159608169" to="165665954#0"/>
    <trip id="bus38" type="bus_bus" depart="380.00" departLane="best" from="-165665947#1" to="-404954658"/>
    <trip id="bus39" type="bus_bus" depart="390.00" departLane="best" from="159064686#2" to="-13282555#9"/>
    <trip id="bus40" type="bus_bus" depart="400.00" departLane="best" from="148356742" to="-165784235#10"/>
    <trip id="bus41" type="bus_bus" depart="410.00" departLane="best" from="398000202" to="-13382998#0"/>
    <trip id="bus42" type="bus_bus" depart="420.00" departLane="best" from="-668298719#0" to="-13287930#2"/>
    <trip id="bus44" type="bus_bus" depart="440.00" departLane="best" from="384281580#1" to="134117953#3"/>
    <trip id="bus45" type="bus_bus" depart="450.00" departLane="best" from="398235785" to="724343160#0"/>
    <trip id="bus46" type="bus_bus" depart="460.00" departLane="best" from="37689821#2" to="398382777"/>
    <trip id="bus47" type="bus_bus" depart="470.00" departLane="best" from="335860231#2" to="398235780#1"/>
    <trip id="bus48" type="bus_bus" depart="480.00" departLane="best" from="-13299226#1" to="-159605407#12"/>
    <trip id="bus49" type="bus_bus" depart="490.00" departLane="best" from="645214159#0" to="-165880079"/>
    <trip id="bus50" type="bus_bus" depart="500.00" departLane="best" departSpeed="max" from="609633811#0" to="-165785347#0"/>
    <trip id="bus51" type="bus_bus" depart="510.00" departLane="best" departSpeed="max" from="13451157#0" to="13327134"/>
    <trip id="bus52" type="bus_bus" depart="520.00" departLane="best" departSpeed="max" from="518126704#0" to="159608165#1"/>
    <trip id="bus53" type="bus_bus" depart="530.00" departLane="best" from="398754269#0" to="13453040#6"/>
    <trip id="bus54" type="bus_bus" depart="540.00" departLane="best" from="295757630#8" to="-136914687#5"/>
    <trip id="bus55" type="bus_bus" depart="550.00" departLane="best" departSpeed="max" from="-13376355#6" to="13330595#2"/>
    <trip id="bus56" type="bus_bus" depart="560.00" departLane="best" from="-165772572" to="13289071#2"/>
    <trip id="bus57" type="bus_bus" depart="570.00" departLane="best" from="398023723#2" to="-13362617#0"/>
    <trip id="bus58" type="bus_bus" depart="580.00" departLane="best" departSpeed="max" from="-606824621#2" to="13470891#1"/>
    <trip id="bus59" type="bus_bus" depart="590.00" departLane="best" from="159156079" to="-13281330#2"/>
    <trip id="bus60" type="bus_bus" depart="600.00" departLane="best" departSpeed="max" from="-165776321#2" to="398021056#1"/>
    <trip id="bus61" type="bus_bus" depart="610.00" departLane="best" from="121936154" to="338171896#4"/>
    <trip id="bus62" type="bus_bus" depart="620.00" departLane="best" from="159608045#0" to="802811755"/>
    <trip id="bus63" type="bus_bus" depart="630.00" departLane="best" from="13439995#0" to="607284021#4"/>
    <trip id="bus64" type="bus_bus" depart="640.00" departLane="best" departSpeed="max" from="-165774473" to="148215662"/>
    <trip id="bus65" type="bus_bus" depart="650.00" departLane="best" from="136732123#10" to="-165828688#0"/>
    <trip id="bus66" type="bus_bus" depart="660.00" departLane="best" from="-165568113#9" to="159764526#2"/>
    <trip id="bus67" type="bus_bus" depart="670.00" departLane="best" from="-607540321#0" to="398785876"/>
    <trip id="bus68" type="bus_bus" depart="680.00" departLane="best" from="13427781#10" to="160556138#0"/>
    <trip id="bus69" type="bus_bus" depart="690.00" departLane="best" from="-398778791#1" to="-13281597#2"/>
    <trip id="bus70" type="bus_bus" depart="700.00" departLane="best" from="-607540312#4" to="165880082"/>
    <trip id="bus71" type="bus_bus" depart="710.00" departLane="best" from="165884170#7" to="-398414286"/>
    <trip id="bus72" type="bus_bus" depart="720.00" departLane="best" from="165880078#2" to="-134117950#2"/>
    <trip id="bus74" type="bus_bus" depart="740.00" departLane="best" from="-13419364#6" to="768081251"/>
    <trip id="bus75" type="bus_bus" depart="750.00" departLane="best" departSpeed="max" from="-13397598#3" to="664051389#18"/>
    <trip id="bus76" type="bus_bus" depart="760.00" departLane="best" from="-398775783#0" to="-13307839#0"/>
    <trip id="bus77" type="bus_bus" depart="770.00" departLane="best" from="-398007955#2" to="398382769#0"/>
    <trip id="bus78" type="bus_bus" depart="780.00" departLane="best" departSpeed="max" from="165568113#0" to="-165880068#0"/>
    <trip id="bus79" type="bus_bus" depart="790.00" departLane="best" departSpeed="max" from="-13289071#2" to="607179440#4"/>
    <trip id="bus80" type="bus_bus" depart="800.00" departLane="best" departSpeed="max" from="-13376660#12" to="165772575"/>
    <trip id="bus81" type="bus_bus" depart="810.00" departLane="best" from="165560824#6" to="149003102#7"/>
    <trip id="bus82" type="bus_bus" depart="820.00" departLane="best" departSpeed="max" from="13311377#0" to="295756012#1"/>
    <trip id="bus83" type="bus_bus" depart="830.00" departLane="best" from="165560828#3" to="-208959927#2"/>
    <trip id="bus84" type="bus_bus" depart="840.00" departLane="best" departSpeed="max" from="13423783#0" to="13285380#3"/>
    <trip id="bus85" type="bus_bus" depart="850.00" departLane="best" from="13362617#6" to="-604363329#0"/>
    <trip id="bus86" type="bus_bus" depart="860.00" departLane="best" from="-159606583#0" to="-165568068#7"/>
    <trip id="bus87" type="bus_bus" depart="870.00" departLane="best" departSpeed="max" from="-150913648" to="-13292658#0"/>
    <trip id="bus88" type="bus_bus" depart="880.00" departLane="best" from="13365731#3" to="-165828688#0"/>
    <trip id="bus89" type="bus_bus" depart="890.00" departLane="best" from="13290818#3" to="-665212184#17"/>
    <trip id="bus90" type="bus_bus" depart="900.00" departLane="best" from="518127185" to="13292909"/>
    <trip id="bus91" type="bus_bus" depart="910.00" departLane="best" from="-13334079#2" to="-13453425#0"/>
    <trip id="bus92" type="bus_bus" depart="920.00" departLane="best" from="838981511" to="-13418669#2"/>
    <trip id="bus93" type="bus_bus" depart="930.00" departLane="best" from="167009682#2" to="13441550"/>
    <trip id="bus94" type="bus_bus" depart="940.00" departLane="best" from="-759240585#0" to="398231610#0"/>
    <trip id="bus95" type="bus_bus" depart="950.00" departLane="best" from="814267423#2" to="-191297052#2"/>
    <trip id="bus97" type="bus_bus" depart="970.00" departLane="best" from="165791832#6" to="607179436"/>
    <trip id="bus98" type="bus_bus" depart="980.00" departLane="best" from="165568127#2" to="-81307782#2"/>
    <trip id="bus99" type="bus_bus" depart="990.00" departLane="best" from="160505043#1" to="456927939#3"/>
    <trip id="bus100" type="bus_bus" depart="1000.00" departLane="best" from="159606594#2" to="518126704#4"/>
    <trip id="bus101" type="bus_bus" depart="1010.00" departLane="best" from="-664051389#1" to="13370598#1"/>
    <trip id="bus102" type="bus_bus" depart="1020.00" departLane="best" from="384161571#1" to="-13361642#0"/>
    <trip id="bus103" type="bus_bus" depart="1030.00" departLane="best" departSpeed="max" from="-13321148#5" to="-607540315#0"/>
    <trip id="bus104" type="bus_bus" depart="1040.00" departLane="best" departSpeed="max" from="13291249" to="150913658#5"/>
    <trip id="bus105" type="bus_bus" depart="1050.00" departLane="best" from="-398231529#2" to="-384143499#0"/>
    <trip id="bus106" type="bus_bus" depart="1060.00" departLane="best" departSpeed="max" from="797875284#0" to="150945319#1"/>
    <trip id="bus107" type="bus_bus" depart="1070.00" departLane="best" from="-150945323#3" to="-398241777#0"/>
    <trip id="bus108" type="bus_bus" depart="1080.00" departLane="best" departSpeed="max" from="-720169817" to="165560828#7"/>
    <trip id="bus109" type="bus_bus" depart="1090.00" departLane="best" from="13385223#9" to="-13384707#0"/>
    <trip id="bus110" type="bus_bus" depart="1100.00" departLane="best" departSpeed="max" from="829717237#0" to="404956293"/>
    <trip id="bus111" type="bus_bus" depart="1110.00" departLane="best" from="165772578" to="13324980#1"/>
    <trip id="bus113" type="bus_bus" depart="1130.00" departLane="best" from="-606824622#2" to="518209359"/>
    <trip id="bus114" type="bus_bus" depart="1140.00" departLane="best" departSpeed="max" from="113411288#0" to="-30656331#4"/>
    <trip id="bus115" type="bus_bus" depart="1150.00" departLane="best" from="-158712302#3" to="165560824#9"/>
    <trip id="bus116" type="bus_bus" depart="1160.00" departLane="best" departSpeed="max" from="13410859" to="-165568122#0"/>
    <trip id="bus117" type="bus_bus" depart="1170.00" departLane="best" from="181489047#0" to="-13321499#10"/>
    <trip id="bus118" type="bus_bus" depart="1180.00" departLane="best" from="165838936#0" to="165568104#1"/>
    <trip id="bus119" type="bus_bus" depart="1190.00" departLane="best" departSpeed="max" from="13352725#0" to="-829717237#1"/>
    <trip id="bus120" type="bus_bus" depart="1200.00" departLane="best" from="13291139" to="689959152"/>
    <trip id="bus121" type="bus_bus" depart="1210.00" departLane="best" from="398043610" to="398231557#1"/>
    <trip id="bus122" type="bus_bus" depart="1220.00" departLane="best" from="-398775796#1" to="-295757629#12"/>
    <trip id="bus123" type="bus_bus" depart="1230.00" departLane="best" from="-13361517#1" to="13471372#2"/>
    <trip id="bus124" type="bus_bus" depart="1240.00" departLane="best" from="-13392254#4" to="136914687#3"/>
    <trip id="bus125" type="bus_bus" depart="1250.00" departLane="best" from="398361686" to="-691335254"/>
    <trip id="bus126" type="bus_bus" depart="1260.00" departLane="best" from="165568050#11" to="398778788#0"/>
    <trip id="bus127" type="bus_bus" depart="1270.00" departLane="best" from="-13449902#0" to="13354640"/>
    <trip id="bus128" type="bus_bus" depart="1280.00" departLane="best" from="-165665952#8" to="404956283"/>
    <trip id="bus129" type="bus_bus" depart="1290.00" departLane="best" from="-13447658#2" to="-879314603#0"/>
    <trip id="bus130" type="bus_bus" depart="1300.00" departLane="best" departSpeed="max" from="-398164477#1" to="13419362#1"/>
    <trip id="bus131" type="bus_bus" depart="1310.00" departLane="best" departSpeed="max" from="13410859" to="13405772#1"/>
    <trip id="bus132" type="bus_bus" depart="1320.00" departLane="best" from="13362617#5" to="404964733"/>
    <trip id="bus133" type="bus_bus" depart="1330.00" departLane="best" from="609633811#7" to="-13444904#0"/>
    <trip id="bus134" type="bus_bus" depart="1340.00" departLane="best" departSpeed="max" from="159608581#0" to="13417815"/>
    <trip id="bus135" type="bus_bus" depart="1350.00" departLane="best" from="-13405989#2" to="-165568127#0"/>
    <trip id="bus136" type="bus_bus" depart="1360.00" departLane="best" from="-165560824#1" to="-13345039#0"/>
    <trip id="bus137" type="bus_bus" depart="1370.00" departLane="best" from="-237019988#1" to="-4341242#0"/>
    <trip id="bus138" type="bus_bus" depart="1380.00" departLane="best" departSpeed="max" from="55336160#0" to="-524970165#5"/>
    <trip id="bus139" type="bus_bus" depart="1390.00" departLane="best" from="604159980" to="-13311124"/>
    <trip id="bus140" type="bus_bus" depart="1400.00" departLane="best" from="-398547793" to="-691335254"/>
    <trip id="bus142" type="bus_bus" depart="1420.00" departLane="best" from="-398362517#1" to="-404954697"/>
    <trip id="bus143" type="bus_bus" depart="1430.00" departLane="best" from="-159081725#7" to="-13422391#5"/>
    <trip id="bus144" type="bus_bus" depart="1440.00" departLane="best" from="263557933#0" to="-165665952#5"/>
    <trip id="bus145" type="bus_bus" depart="1450.00" departLane="best" from="-13451447#1" to="398754268#5"/>
    <trip id="bus146" type="bus_bus" depart="1460.00" departLane="best" departSpeed="max" from="-13293872#1" to="27165257"/>
    <trip id="bus147" type="bus_bus" depart="1470.00" departLane="best" departSpeed="max" from="-13406002" to="13318502#2"/>
    <trip id="bus148" type="bus_bus" depart="1480.00" departLane="best" departSpeed="max" from="13362617#0" to="-81307782#0"/>
    <trip id="bus149" type="bus_bus" depart="1490.00" departLane="best" from="-397996293#0" to="-799521926"/>
    <trip id="bus150" type="bus_bus" depart="1500.00" departLane="best" from="-607194248#0" to="-13388651#2"/>
    <trip id="bus152" type="bus_bus" depart="1520.00" departLane="best" from="-384160624#4" to="-13422391#6"/>
    <trip id="bus153" type="bus_bus" depart="1530.00" departLane="best" departSpeed="max" from="165774481" to="688003602#3"/>
    <trip id="bus154" type="bus_bus" depart="1540.00" departLane="best" from="-13405772#1" to="398000203#1"/>
    <trip id="bus155" type="bus_bus" depart="1550.00" departLane="best" departSpeed="max" from="13415156#0" to="371807504#5"/>
    <trip id="bus156" type="bus_bus" depart="1560.00" departLane="best" from="397996276" to="723752712#1"/>
    <trip id="bus157" type="bus_bus" depart="1570.00" departLane="best" from="-673269352#1" to="-165880116#6"/>
    <trip id="bus158" type="bus_bus" depart="1580.00" departLane="best" from="-159759780#1" to="-13441117#0"/>
    <trip id="bus159" type="bus_bus" depart="1590.00" departLane="best" departSpeed="max" from="-13284710#12" to="165880080#4"/>
    <trip id="bus160" type="bus_bus" depart="1600.00" departLane="best" from="405294849" to="398231683"/>
    <trip id="bus161" type="bus_bus" depart="1610.00" departLane="best" departSpeed="max" from="-13411114" to="-13296963#0"/>
    <trip id="bus162" type="bus_bus" depart="1620.00" departLane="best" from="397994429#0" to="-165665952#10"/>
    <trip id="bus163" type="bus_bus" depart="1630.00" departLane="best" from="176216080" to="13310661#1"/>
    <trip id="bus164" type="bus_bus" depart="1640.00" departLane="best" departSpeed="max" from="13405759#0" to="136914689#6"/>
    <trip id="bus165" type="bus_bus" depart="1650.00" departLane="best" from="136732123#6" to="-13458254"/>
    <trip id="bus166" type="bus_bus" depart="1660.00" departLane="best" from="-295757629#7" to="-783237790#1"/>
    <trip id="bus167" type="bus_bus" depart="1670.00" departLane="best" from="37686052#3" to="150913658#8"/>
    <trip id="bus168" type="bus_bus" depart="1680.00" departLane="best" from="-37683969#6" to="13290044"/>
    <trip id="bus169" type="bus_bus" depart="1690.00" departLane="best" from="398783440#0" to="398362513#0"/>
    <trip id="bus170" type="bus_bus" depart="1700.00" departLane="best" from="150913663#0" to="-604115983#6"/>
    <trip id="bus171" type="bus_bus" depart="1710.00" departLane="best" from="-398364729#3" to="-398251732#1"/>
    <trip id="bus172" type="bus_bus" depart="1720.00" departLane="best" departSpeed="max" from="-165568064#7" to="-13441117#0"/>
    <trip id="bus174" type="bus_bus" depart="1740.00" departLane="best" from="37683969#2" to="13280907#3"/>
    <trip id="bus175" type="bus_bus" depart="1750.00" departLane="best" departSpeed="max" from="13280428#0" to="-165880105#0"/>
    <trip id="bus176" type="bus_bus" depart="1760.00" departLane="best" from="319505918#1" to="-13442991#0"/>
    <trip id="bus177" type="bus_bus" depart="1770.00" departLane="best" departSpeed="max" from="-165776323#3" to="148455912#1"/>
    <trip id="bus178" type="bus_bus" depart="1780.00" departLane="best" from="398361715#2" to="13381603#3"/>
    <trip id="bus179" type="bus_bus" depart="1790.00" departLane="best" from="398775801#0" to="-13451157#0"/>
    <trip id="bus180" type="bus_bus" depart="1800.00" departLane="best" from="-398231610#0" to="-13303520"/>
    <trip id="bus181" type="bus_bus" depart="1810.00" departLane="best" from="-13441117#1" to="165568105#5"/>
    <trip id="bus182" type="bus_bus" depart="1820.00" departLane="best" from="124425029#0" to="-13408628#5"/>
    <trip id="bus183" type="bus_bus" depart="1830.00" departLane="best" departSpeed="max" from="694625943#0" to="-13351191#1"/>
    <trip id="bus184" type="bus_bus" depart="1840.00" departLane="best" departSpeed="max" from="797876019#0" to="13381357"/>
    <trip id="bus185" type="bus_bus" depart="1850.00" departLane="best" from="271395566#0" to="-397987913#0"/>
    <trip id="bus186" type="bus_bus" depart="1860.00" departLane="best" departSpeed="max" from="124550393" to="-165884183#0"/>
    <trip id="bus187" type="bus_bus" depart="1870.00" departLane="best" from="-13324034#0" to="518117993"/>
    <trip id="bus188" type="bus_bus" depart="1880.00" departLane="best" departSpeed="max" from="13376351#0" to="-165774483#4"/>
    <trip id="bus189" type="bus_bus" depart="1890.00" departLane="best" from="-398361703" to="232934284"/>
    <trip id="bus190" type="bus_bus" depart="1900.00" departLane="best" from="398239888" to="-384017395#2"/>
    <trip id="bus191" type="bus_bus" depart="1910.00" departLane="best" departSpeed="max" from="13318502#0" to="456933545#0"/>
    <trip id="bus192" type="bus_bus" depart="1920.00" departLane="best" from="-13370861#4" to="159081725#20"/>
    <trip id="bus193" type="bus_bus" depart="1930.00" departLane="best" from="-398231683" to="-13321144#6"/>
    <trip id="bus194" type="bus_bus" depart="1940.00" departLane="best" from="-457157033" to="150913648"/>
    <trip id="bus195" type="bus_bus" depart="1950.00" departLane="best" departSpeed="max" from="165790320" to="13312212"/>
    <trip id="bus196" type="bus_bus" depart="1960.00" departLane="best" from="-398231511" to="-13349023#0"/>
    <trip id="bus197" type="bus_bus" depart="1970.00" departLane="best" departSpeed="max" from="295757629#0" to="13324913"/>
    <trip id="bus198" type="bus_bus" depart="1980.00" departLane="best" from="-398055334" to="398375581#4"/>
    <trip id="bus199" type="bus_bus" depart="1990.00" departLane="best" departSpeed="max" from="-150913660" to="678374265"/>
    <trip id="bus200" type="bus_bus" depart="2000.00" departLane="best" from="-398209500#0" to="57370522#5"/>
    <trip id="bus201" type="bus_bus" depart="2010.00" departLane="best" departSpeed="max" from="-165776325" to="136914689#24"/>
    <trip id="bus202" type="bus_bus" depart="2020.00" departLane="best" from="13383615#0" to="-13427781#7"/>
    <trip id="bus203" type="bus_bus" depart="2030.00" departLane="best" from="150945316#2" to="172314749#0"/>
    <trip id="bus204" type="bus_bus" depart="2040.00" departLane="best" departSpeed="max" from="13318516#0" to="13468296#1"/>
    <trip id="bus206" type="bus_bus" depart="2060.00" departLane="best" from="-159608168#1" to="13442939#0"/>
    <trip id="bus207" type="bus_bus" depart="2070.00" departLane="best" departSpeed="max" from="-365598527" to="129554357#3"/>
    <trip id="bus208" type="bus_bus" depart="2080.00" departLane="best" from="-165838935#0" to="-165772582#2"/>
    <trip id="bus209" type="bus_bus" depart="2090.00" departLane="best" from="-13389761#16" to="-165884146#2"/>
    <trip id="bus210" type="bus_bus" depart="2100.00" departLane="best" from="-13467281#1" to="-37683969#6"/>
    <trip id="bus211" type="bus_bus" depart="2110.00" departLane="best" from="-398235789#1" to="-13327153#1"/>
    <trip id="bus212" type="bus_bus" depart="2120.00" departLane="best" from="-165884133#21" to="81307782#6"/>
    <trip id="bus213" type="bus_bus" depart="2130.00" departLane="best" from="51538547" to="165884105#8"/>
    <trip id="bus214" type="bus_bus" depart="2140.00" departLane="best" departSpeed="max" from="13451157#0" to="13330858#0"/>
    <trip id="bus215" type="bus_bus" depart="2150.00" departLane="best" departSpeed="max" from="237019983" to="185399264#1"/>
    <trip id="bus216" type="bus_bus" depart="2160.00" departLane="best" from="-13295686#14" to="-271395566#0"/>
    <trip id="bus217" type="bus_bus" depart="2170.00" departLane="best" from="-398025232" to="-398231497#3"/>
    <trip id="bus218" type="bus_bus" depart="2180.00" departLane="best" from="-165880106#0" to="-13422391#0"/>
    <trip id="bus219" type="bus_bus" depart="2190.00" departLane="best" from="607179435#0" to="355366002#3"/>
    <trip id="bus220" type="bus_bus" depart="2200.00" departLane="best" from="165665961#6" to="-398000202"/>
    <trip id="bus221" type="bus_bus" depart="2210.00" departLane="best" departSpeed="max" from="13298600" to="-159608167#5"/>
    <trip id="bus222" type="bus_bus" depart="2220.00" departLane="best" from="165568069#1" to="-13441117#0"/>
    <trip id="bus223" type="bus_bus" depart="2230.00" departLane="best" from="-165665961#6" to="159607071"/>
    <trip id="bus224" type="bus_bus" depart="2240.00" departLane="best" from="-13333489#2" to="-509308248#2"/>
    <trip id="bus225" type="bus_bus" depart="2250.00" departLane="best" from="173879099#1" to="-13280907#1"/>
    <trip id="bus226" type="bus_bus" depart="2260.00" departLane="best" departSpeed="max" from="13382998#0" to="49313545#0"/>
    <trip id="bus227" type="bus_bus" depart="2270.00" departLane="best" from="398364729#2" to="13291625#1"/>
    <trip id="bus228" type="bus_bus" depart="2280.00" departLane="best" departSpeed="max" from="13415156#0" to="13363277#3"/>
    <trip id="bus229" type="bus_bus" depart="2290.00" departLane="best" from="404954667" to="-148747110#6"/>
    <trip id="bus230" type="bus_bus" depart="2300.00" departLane="best" departSpeed="max" from="4341232#0" to="398364729#3"/>
    <trip id="bus231" type="bus_bus" depart="2310.00" departLane="best" from="-13403438" to="765273748"/>
    <trip id="bus232" type="bus_bus" depart="2320.00" departLane="best" departSpeed="max" from="-165884175" to="81307782#6"/>
    <trip id="bus233" type="bus_bus" depart="2330.00" departLane="best" departSpeed="max" from="165560843#0" to="-13341465#4"/>
    <trip id="bus234" type="bus_bus" depart="2340.00" departLane="best" departSpeed="max" from="-524962751" to="13317983#0"/>
    <trip id="bus235" type="bus_bus" depart="2350.00" departLane="best" from="398591356#9" to="165568085#0"/>
    <trip id="bus236" type="bus_bus" depart="2360.00" departLane="best" from="404956245" to="-167009682#0"/>
    <trip id="bus237" type="bus_bus" depart="2370.00" departLane="best" from="165880078#1" to="13440951#3"/>
    <trip id="bus238" type="bus_bus" depart="2380.00" departLane="best" from="-607179441#3" to="13376345"/>
    <trip id="bus239" type="bus_bus" depart="2390.00" departLane="best" departSpeed="max" from="13291625#0" to="13365362#5"/>
    <trip id="bus240" type="bus_bus" depart="2400.00" departLane="best" from="-81307782#8" to="165568096#0"/>
    <trip id="bus241" type="bus_bus" depart="2410.00" departLane="best" from="13325562#1" to="13400218#5"/>
    <trip id="bus242" type="bus_bus" depart="2420.00" departLane="best" departSpeed="max" from="-13454217" to="-37685945#1"/>
    <trip id="bus243" type="bus_bus" depart="2430.00" departLane="best" departSpeed="max" from="-159608219#3" to="13412718#3"/>
    <trip id="bus244" type="bus_bus" depart="2440.00" departLane="best" from="-13344579#4" to="113411288#7"/>
    <trip id="bus245" type="bus_bus" depart="2450.00" departLane="best" from="-4341218#9" to="384136409#2"/>
    <trip id="bus246" type="bus_bus" depart="2460.00" departLane="best" departSpeed="max" from="48168879#0" to="-13310947#1"/>
    <trip id="bus247" type="bus_bus" depart="2470.00" departLane="best" from="167920393#1" to="742710675"/>
    <trip id="bus248" type="bus_bus" depart="2480.00" departLane="best" from="398259441#0" to="402665250#12"/>
    <trip id="bus249" type="bus_bus" depart="2490.00" departLane="best" from="-165560828#4" to="-13278912#0"/>
    <trip id="bus250" type="bus_bus" depart="2500.00" departLane="best" from="159608582#3" to="13370594"/>
    <trip id="bus251" type="bus_bus" depart="2510.00" departLane="best" from="13364432#5" to="384149481#0"/>
    <trip id="bus252" type="bus_bus" depart="2520.00" departLane="best" departSpeed="max" from="167920394#0" to="398387399"/>
    <trip id="bus253" type="bus_bus" depart="2530.00" departLane="best" from="-13342156#1" to="13318502#2"/>
    <trip id="bus254" type="bus_bus" depart="2540.00" departLane="best" from="-13349026#6" to="607194248#0"/>
    <trip id="bus255" type="bus_bus" depart="2550.00" departLane="best" from="398379077" to="404956205"/>
    <trip id="bus256" type="bus_bus" depart="2560.00" departLane="best" from="518268777#12" to="159608016#2"/>
    <trip id="bus257" type="bus_bus" depart="2570.00" departLane="best" from="261564548" to="-295757630#4"/>
    <trip id="bus258" type="bus_bus" depart="2580.00" departLane="best" departSpeed="max" from="-607194248#3" to="-13453425#0"/>
    <trip id="bus259" type="bus_bus" depart="2590.00" departLane="best" from="13294401#0" to="398023728#0"/>
    <trip id="bus260" type="bus_bus" depart="2600.00" departLane="best" from="13400218#3" to="687409238"/>
    <trip id="bus261" type="bus_bus" depart="2610.00" departLane="best" from="398007545" to="-13382998#0"/>
    <trip id="bus262" type="bus_bus" depart="2620.00" departLane="best" from="-150945326#7" to="165884183#0"/>
    <trip id="bus263" type="bus_bus" depart="2630.00" departLane="best" from="-384278926" to="631737212#2"/>
    <trip id="bus264" type="bus_bus" depart="2640.00" departLane="best" from="-165665961#9" to="13438582#6"/>