<?xml version="1.0" encoding="UTF-8"?>

<!-- generated on Sun Dec 20 13:45:31 2020 by Eclipse SUMO duarouter Version 1.8.0
<configuration xmlns:xsi="http://www.w3.org/2001/XMLSchema-instance" xsi:noNamespaceSchemaLocation="http://sumo.dlr.de/xsd/duarouterConfiguration.xsd">

    <input>
        <net-file value="/Users/ayushs/dev/warpdriv-simulation/2020-12-20-13-37-59/osm.net.xml"/>
        <route-files value="/Users/ayushs/dev/warpdriv-simulation/2020-12-20-13-37-59/osm.bus.trips.xml"/>
    </input>

    <output>
        <output-file value="/Users/ayushs/dev/warpdriv-simulation/2020-12-20-13-37-59/osm.bus.trips.xml.tmp"/>
        <write-trips value="true"/>
    </output>

    <time>
        <begin value="0"/>
        <end value="3600"/>
    </time>

    <report>
        <no-warnings value="true"/>
        <ignore-errors value="true"/>
        <no-step-log value="true"/>
    </report>

</configuration>
-->

<routes xmlns:xsi="http://www.w3.org/2001/XMLSchema-instance" xsi:noNamespaceSchemaLocation="http://sumo.dlr.de/xsd/routes_file.xsd">
    <vType id="bus_bus" vClass="bus"/>
    <trip id="bus0" type="bus_bus" depart="0.00" departLane="best" from="150945326#7" to="-13302753#4"/>
    <trip id="bus1" type="bus_bus" depart="0.48" departLane="best" from="-165884170#5" to="-165568128#1"/>
    <trip id="bus2" type="bus_bus" depart="0.95" departLane="best" from="165880105#2" to="159763321#2"/>
    <trip id="bus3" type="bus_bus" depart="1.43" departLane="best" from="398593626#0" to="-13384707#0"/>
    <trip id="bus4" type="bus_bus" depart="1.90" departLane="best" departSpeed="max" from="-61651878" to="-13310952#4"/>
    <trip id="bus5" type="bus_bus" depart="2.38" departLane="best" departSpeed="max" from="-165568096#7" to="13328127#5"/>
    <trip id="bus6" type="bus_bus" depart="2.85" departLane="best" from="-13308092#0" to="-159759780#4"/>
    <trip id="bus7" type="bus_bus" depart="3.33" departLane="best" from="159606721#18" to="13382163#0"/>
    <trip id="bus8" type="bus_bus" depart="3.80" departLane="best" from="-165568113#1" to="13439995#0"/>
    <trip id="bus9" type="bus_bus" depart="4.28" departLane="best" from="384145810#3" to="-13281956#10"/>
    <trip id="bus10" type="bus_bus" depart="4.75" departLane="best" from="384141786#1" to="165665944#1"/>
    <trip id="bus11" type="bus_bus" depart="5.23" departLane="best" from="-398231505" to="-136732123#12"/>
    <trip id="bus12" type="bus_bus" depart="5.70" departLane="best" from="607492381#4" to="-398007955#1"/>
    <trip id="bus13" type="bus_bus" depart="6.18" departLane="best" from="-13393459#1" to="-13400218#0"/>
    <trip id="bus14" type="bus_bus" depart="6.65" departLane="best" from="398164477#0" to="13458617#3"/>
    <trip id="bus15" type="bus_bus" depart="7.13" departLane="best" departSpeed="max" from="384143496" to="165838938#5"/>
    <trip id="bus16" type="bus_bus" depart="7.60" departLane="best" from="-398784747" to="13392254#2"/>
    <trip id="bus17" type="bus_bus" depart="8.08" departLane="best" from="393132601#3" to="136914689#21"/>
    <trip id="bus18" type="bus_bus" depart="8.55" departLane="best" from="398251732#1" to="13423466#4"/>
    <trip id="bus19" type="bus_bus" depart="9.03" departLane="best" from="165772582#0" to="-13327137#2"/>
    <trip id="bus20" type="bus_bus" depart="9.50" departLane="best" departSpeed="max" from="-165665945#2" to="-181211547#4"/>
    <trip id="bus21" type="bus_bus" depart="9.98" departLane="best" from="-13376660#2" to="-165665952#4"/>
    <trip id="bus22" type="bus_bus" depart="10.46" departLane="best" departSpeed="max" from="-13406002" to="-165884154#0"/>
    <trip id="bus23" type="bus_bus" depart="10.93" departLane="best" from="150945305#2" to="-398382766#1"/>
    <trip id="bus24" type="bus_bus" depart="11.41" departLane="best" from="-398589934#3" to="-160822400"/>
    <trip id="bus25" type="bus_bus" depart="11.88" departLane="best" from="-165884078#2" to="521906685"/>
    <trip id="bus26" type="bus_bus" depart="12.36" departLane="best" from="159606594#0" to="13466702#1"/>
    <trip id="bus27" type="bus_bus" depart="12.83" departLane="best" from="-150913661#1" to="165838935#2"/>
    <trip id="bus28" type="bus_bus" depart="13.31" departLane="best" from="-149003088#2" to="-398754268#2"/>
    <trip id="bus29" type="bus_bus" depart="13.78" departLane="best" from="814267423#0" to="150945308#1"/>
    <trip id="bus30" type="bus_bus" depart="14.26" departLane="best" from="13406808#1" to="165560855#5"/>
    <trip id="bus31" type="bus_bus" depart="14.73" departLane="best" from="398027276#4" to="27165188"/>
    <trip id="bus32" type="bus_bus" depart="15.21" departLane="best" from="-165665948#12" to="-13311648"/>
    <trip id="bus33" type="bus_bus" depart="15.68" departLane="best" from="-384001506#0" to="-165880099#1"/>
    <trip id="bus34" type="bus_bus" depart="16.16" departLane="best" from="-165560824#10" to="58873014#4"/>
    <trip id="bus35" type="bus_bus" depart="16.63" departLane="best" from="398382773#6" to="-37683969#14"/>
    <trip id="bus36" type="bus_bus" depart="17.11" departLane="best" from="159608046#0-AddedOnRampEdge" to="-404992836"/>
    <trip id="bus37" type="bus_bus" depart="17.58" departLane="best" from="404959396#0" to="124388226"/>
    <trip id="bus38" type="bus_bus" depart="18.06" departLane="best" departSpeed="max" from="-165880109#1" to="-165782970#11"/>
    <trip id="bus39" type="bus_bus" depart="18.53" departLane="best" departSpeed="max" from="13441117#0" to="398754268#6"/>
    <trip id="bus40" type="bus_bus" depart="19.01" departLane="best" from="-50197032#3" to="-165568098#0"/>
    <trip id="bus41" type="bus_bus" depart="19.48" departLane="best" from="867901248#1" to="13333489#9"/>
    <trip id="bus42" type="bus_bus" depart="19.96" departLane="best" from="-13389761#8" to="-13327892#2"/>
    <trip id="bus43" type="bus_bus" depart="20.43" departLane="best" from="-13418324#2" to="149003088#2"/>
    <trip id="bus44" type="bus_bus" depart="20.91" departLane="best" departSpeed="max" from="353269068" to="-607179440#1"/>
    <trip id="bus45" type="bus_bus" depart="21.39" departLane="best" departSpeed="max" from="-13361072" to="-398775785"/>
    <trip id="bus46" type="bus_bus" depart="21.86" departLane="best" from="866541881#0" to="13365780"/>
    <trip id="bus47" type="bus_bus" depart="22.34" departLane="best" from="673269353#0" to="398244735#3"/>
    <trip id="bus48" type="bus_bus" depart="22.81" departLane="best" from="-13290047#2" to="165783271#2"/>
    <trip id="bus49" type="bus_bus" depart="23.29" departLane="best" from="165568050#1" to="13373412#3"/>
    <trip id="bus50" type="bus_bus" depart="23.76" departLane="best" from="-165884078#0" to="150945316#2"/>
    <trip id="bus51" type="bus_bus" depart="24.24" departLane="best" from="-13419362#5" to="-665212184#14"/>
    <trip id="bus52" type="bus_bus" depart="24.71" departLane="best" from="121501753#3" to="607540312#1"/>
    <trip id="bus53" type="bus_bus" depart="25.19" departLane="best" from="398382769#1" to="-165880069#0"/>
    <trip id="bus54" type="bus_bus" depart="25.66" departLane="best" from="13326598#1" to="-159081725#13"/>
    <trip id="bus55" type="bus_bus" depart="26.14" departLane="best" from="404956200#0" to="398364711"/>
    <trip id="bus56" type="bus_bus" depart="26.61" departLane="best" from="-288116300#2" to="150945302#3"/>
    <trip id="bus57" type="bus_bus" depart="27.09" departLane="best" departSpeed="max" from="13470332" to="-13470891#2"/>
    <trip id="bus58" type="bus_bus" depart="27.56" departLane="best" from="185399302#1" to="13376660#3"/>
    <trip id="bus59" type="bus_bus" depart="28.04" departLane="best" from="288116300#1" to="13366224#13"/>
    <trip id="bus60" type="bus_bus" depart="28.51" departLane="best" from="-113414374#0" to="-384160625#0"/>
    <trip id="bus61" type="bus_bus" depart="28.99" departLane="best" from="-13296733#8" to="49287176"/>
    <trip id="bus62" type="bus_bus" depart="29.46" departLane="best" from="398387370" to="397971426#2"/>
    <trip id="bus63" type="bus_bus" depart="29.94" departLane="best" departSpeed="max" from="-351500152#2" to="-13344690"/>
    <trip id="bus64" type="bus_bus" depart="30.41" departLane="best" from="398382786#0" to="604159986#1"/>
    <trip id="bus65" type="bus_bus" depart="30.89" departLane="best" from="-13382998#2" to="13308692"/>
    <trip id="bus66" type="bus_bus" depart="31.37" departLane="best" from="-13365776#0" to="181489047#0"/>
    <trip id="bus67" type="bus_bus" depart="31.84" departLane="best" from="225342490#1" to="-13442939#0"/>
    <trip id="bus68" type="bus_bus" depart="32.32" departLane="best" from="13297005#4" to="13388652#5"/>
    <trip id="bus69" type="bus_bus" depart="32.79" departLane="best" from="-165880110" to="398375581#2"/>
    <trip id="bus70" type="bus_bus" depart="33.27" departLane="best" from="-643327597#0" to="-165560824#9"/>
    <trip id="bus71" type="bus_bus" depart="33.74" departLane="best" from="13381638#1" to="165880068#2"/>
    <trip id="bus72" type="bus_bus" depart="34.22" departLane="best" from="-159759788#6" to="-352600364#0"/>
    <trip id="bus73" type="bus_bus" depart="34.69" departLane="best" from="860279678" to="159605404#1"/>
    <trip id="bus74" type="bus_bus" depart="35.17" departLane="best" from="-732479171#1" to="13349041#4"/>
    <trip id="bus75" type="bus_bus" depart="35.64" departLane="best" from="-13432591#3" to="-165568134#1"/>
    <trip id="bus76" type="bus_bus" depart="36.12" departLane="best" from="-398160132" to="13438582#6"/>
    <trip id="bus77" type="bus_bus" depart="36.59" departLane="best" from="-13366224#5" to="149009294#2"/>
    <trip id="bus78" type="bus_bus" depart="37.07" departLane="best" from="-165665948#10" to="403614589"/>
    <trip id="bus79" type="bus_bus" depart="37.54" departLane="best" from="398239910#2" to="-13365739#7"/>
    <trip id="bus80" type="bus_bus" depart="38.02" departLane="best" from="-165774472" to="159759772#2"/>
    <trip id="bus81" type="bus_bus" depart="38.49" departLane="best" from="-165568048#4" to="-13446430#19"/>
    <trip id="bus82" type="bus_bus" depart="38.97" departLane="best" departSpeed="max" from="509313137#0" to="13418324#4"/>
    <trip id="bus83" type="bus_bus" depart="39.44" departLane="best" from="13295686#1" to="306061207#1"/>
    <trip id="bus84" type="bus_bus" depart="39.92" departLane="best" from="384143511" to="-159608162#0"/>
    <trip id="bus85" type="bus_bus" depart="40.39" departLane="best" departSpeed="max" from="-13397543" to="-644695812#16"/>
    <trip id="bus86" type="bus_bus" depart="40.87" departLane="best" from="-644695812#13" to="13284710#12"/>
    <trip id="bus87" type="bus_bus" depart="41.34" departLane="best" from="165838916#1" to="159762588"/>
    <trip id="bus88" type="bus_bus" depart="41.82" departLane="best" from="768081251" to="-13403934#3"/>
    <trip id="bus89" type="bus_bus" depart="42.30" departLane="best" from="-518181559#1" to="-398025237"/>
    <trip id="bus90" type="bus_bus" depart="42.77" departLane="best" from="398251732#1" to="-165782975#1"/>
    <trip id="bus91" type="bus_bus" depart="43.25" departLane="best" departSpeed="max" from="-159608039#3" to="-81338439#1"/>
    <trip id="bus92" type="bus_bus" depart="43.72" departLane="best" departSpeed="max" from="-61651878" to="-165884163"/>
    <trip id="bus93" type="bus_bus" depart="44.20" departLane="best" from="-165784235#11" to="456747069#0"/>
    <trip id="bus94" type="bus_bus" depart="44.67" departLane="best" departSpeed="max" from="-802811755" to="398253258#1"/>
    <trip id="bus95" type="bus_bus" depart="45.15" departLane="best" from="13394547#2" to="-13330914#2"/>
    <trip id="bus96" type="bus_bus" depart="45.62" departLane="best" departSpeed="max" from="879314603#0" to="397998282"/>
    <trip id="bus97" type="bus_bus" depart="46.10" departLane="best" from="665212184#10" to="48120431#0"/>
    <trip id="bus98" type="bus_bus" depart="46.57" departLane="best" from="398179974" to="-149009275#0"/>
    <trip id="bus99" type="bus_bus" depart="47.05" departLane="best" from="13311370#0" to="-165560843#0"/>
    <trip id="bus100" type="bus_bus" depart="47.52" departLane="best" departSpeed="max" from="-51538564#1" to="-13347717#0"/>
    <trip id="bus101" type="bus_bus" depart="48.00" departLane="best" from="-398785876" to="772803468#6"/>
    <trip id="bus102" type="bus_bus" depart="48.47" departLane="best" from="-165880112#0" to="301869716#2"/>
    <trip id="bus103" type="bus_bus" depart="48.95" departLane="best" departSpeed="max" from="124550393" to="-607283882#0"/>
    <trip id="bus104" type="bus_bus" depart="49.42" departLane="best" from="607492381#8" to="860279678"/>
    <trip id="bus105" type="bus_bus" depart="49.90" departLane="best" from="13406004#1" to="165782984#2"/>
    <trip id="bus106" type="bus_bus" depart="50.37" departLane="best" from="-136913614#7" to="-237019963#0"/>
    <trip id="bus107" type="bus_bus" depart="50.85" departLane="best" from="13384004#1" to="165884183#1"/>
    <trip id="bus108" type="bus_bus" depart="51.32" departLane="best" from="-13348581#2" to="13435166#1"/>
    <trip id="bus109" type="bus_bus" depart="51.80" departLane="best" departSpeed="max" from="13327907#0" to="398231589"/>
    <trip id="bus110" type="bus_bus" depart="52.28" departLane="best" from="-136914689#25" to="644897494"/>
    <trip id="bus111" type="bus_bus" depart="52.75" departLane="best" from="-13376660#8" to="-159606721#13"/>
    <trip id="bus112" type="bus_bus" depart="53.23" departLane="best" from="13453040#3" to="159763307#10"/>
    <trip id="bus113" type="bus_bus" depart="53.70" departLane="best" from="-165772564#8" to="-13432018#0"/>
    <trip id="bus114" type="bus_bus" depart="54.18" departLane="best" from="398591356#3" to="-165782967#3"/>
    <trip id="bus115" type="bus_bus" depart="54.65" departLane="best" from="13452731#3" to="142803966#4"/>
    <trip id="bus116" type="bus_bus" depart="55.13" departLane="best" from="-607540313#1" to="13433876#3"/>
    <trip id="bus117" type="bus_bus" depart="55.60" departLane="best" from="13363277#0" to="518181559#1"/>
    <trip id="bus118" type="bus_bus" depart="56.08" departLane="best" from="-159763304#4" to="165782971#4"/>
    <trip id="bus119" type="bus_bus" depart="56.55" departLane="best" from="-165774476#0" to="-405093843"/>
    <trip id="bus120" type="bus_bus" depart="57.03" departLane="best" from="159763310#7" to="-265117033#2"/>
    <trip id="bus121" type="bus_bus" depart="57.50" departLane="best" from="-384017395#0" to="167920964#7"/>
    <trip id="bus122" type="bus_bus" depart="57.98" departLane="best" from="-13367722#1" to="121936154"/>
    <trip id="bus123" type="bus_bus" depart="58.45" departLane="best" from="871456124#1" to="865180372#0"/>
    <trip id="bus124" type="bus_bus" depart="58.93" departLane="best" departSpeed="max" from="-13367893#2" to="-165560832#2"/>
    <trip id="bus125" type="bus_bus" depart="59.40" departLane="best" from="-165880112#0" to="517590700#1"/>
    <trip id="bus126" type="bus_bus" depart="59.88" departLane="best" from="398387413#0" to="398387402"/>
    <trip id="bus127" type="bus_bus" depart="60.35" departLane="best" from="-398583282#0" to="-136914688#0"/>
    <trip id="bus128" type="bus_bus" depart="60.83" departLane="best" from="397975349#0" to="165665959#1"/>
    <trip id="bus129" type="bus_bus" depart="61.30" departLane="best" from="136732119#1" to="797867346#3"/>
    <trip id="bus130" type="bus_bus" depart="61.78" departLane="best" from="159608035#0" to="-13284694#2"/>
    <trip id="bus131" type="bus_bus" depart="62.25" departLane="best" from="384166363" to="-263305634#2"/>
    <trip id="bus132" type="bus_bus" depart="62.73" departLane="best" from="159756858#3" to="524970165#6"/>
    <trip id="bus133" type="bus_bus" depart="63.21" departLane="best" departSpeed="max" from="-13448320" to="-13425587#1"/>
    <trip id="bus134" type="bus_bus" depart="63.68" departLane="best" from="-134117950#2" to="13393467#3"/>
    <trip id="bus135" type="bus_bus" depart="64.16" departLane="best" from="-165884142#6" to="13459609#1"/>
    <trip id="bus136" type="bus_bus" depart="64.63" departLane="best" from="165783258#2" to="-159763306"/>
    <trip id="bus137" type="bus_bus" depart="65.11" departLane="best" from="150945296#2" to="-165880070#5"/>
    <trip id="bus138" type="bus_bus" depart="65.58" departLane="best" departSpeed="max" from="13312215" to="402665250#9"/>
    <trip id="bus139" type="bus_bus" depart="66.06" departLane="best" from="398056081#1" to="-13393459#0"/>
    <trip id="bus140" type="bus_bus" depart="66.53" departLane="best" from="-644695812#12" to="-165884142#0"/>
    <trip id="bus141" type="bus_bus" depart="67.01" departLane="best" from="-13278915#1" to="26023453#0"/>
    <trip id="bus142" type="bus_bus" depart="67.48" departLane="best" from="150945310#0" to="-165838916#5"/>
    <trip id="bus144" type="bus_bus" depart="68.43" departLane="best" departSpeed="max" from="-666606689" to="-13287930#1"/>
    <trip id="bus145" type="bus_bus" depart="68.91" departLane="best" departSpeed="max" from="-13371781" to="398546905"/>
    <trip id="bus146" type="bus_bus" depart="69.38" departLane="best" from="398785876" to="13382991"/>
    <trip id="bus147" type="bus_bus" depart="69.86" departLane="best" from="397982782" to="13432628#0"/>
    <trip id="bus148" type="bus_bus" depart="70.33" departLane="best" departSpeed="max" from="-13466704#4" to="-13440949#5"/>
    <trip id="bus149" type="bus_bus" depart="70.81" departLane="best" from="-353920849#0" to="398771136#0"/>
    <trip id="bus150" type="bus_bus" depart="71.28" departLane="best" departSpeed="max" from="37684096#0" to="398244735#2"/>
    <trip id="bus151" type="bus_bus" depart="71.76" departLane="best" from="398754268#5" to="-165560815#5"/>
    <trip id="bus152" type="bus_bus" depart="72.23" departLane="best" from="-165783270#5" to="-13408628#0"/>
    <trip id="bus153" type="bus_bus" depart="72.71" departLane="best" from="295756012#19" to="398552701#0"/>
    <trip id="bus154" type="bus_bus" depart="73.19" departLane="best" from="-539608082#11" to="148211144#22"/>
    <trip id="bus155" type="bus_bus" depart="73.66" departLane="best" from="-136913614#1" to="495749053#3"/>
    <trip id="bus156" type="bus_bus" depart="74.14" departLane="best" from="398357489" to="732479170"/>
    <trip id="bus157" type="bus_bus" depart="74.61" departLane="best" from="384146137" to="398416036#1"/>
    <trip id="bus158" type="bus_bus" depart="75.09" departLane="best" from="-13306681#1" to="165880109#1"/>
    <trip id="bus159" type="bus_bus" depart="75.56" departLane="best" from="383989689" to="398359039"/>
    <trip id="bus160" type="bus_bus" depart="76.04" departLane="best" from="384145967" to="-165880086#1"/>
    <trip id="bus161" type="bus_bus" depart="76.51" departLane="best" departSpeed="max" from="30968317" to="-13418163#3"/>
    <trip id="bus162" type="bus_bus" depart="76.99" departLane="best" from="398364729#1" to="398239887#1"/>
    <trip id="bus163" type="bus_bus" depart="77.46" departLane="best" from="-165568129#3" to="384166363"/>
    <trip id="bus164" type="bus_bus" depart="77.94" departLane="best" from="13281597#2" to="-295757629#7"/>
    <trip id="bus165" type="bus_bus" depart="78.41" departLane="best" from="37683969#10" to="-165665935#18"/>
    <trip id="bus166" type="bus_bus" depart="78.89" departLane="best" from="-13300361#1" to="-159608220#7"/>
    <trip id="bus167" type="bus_bus" depart="79.36" departLane="best" from="-393928531#5" to="398359043"/>
    <trip id="bus168" type="bus_bus" depart="79.84" departLane="best" from="651573513#16" to="-165884170#1"/>
    <trip id="bus169" type="bus_bus" depart="80.31" departLane="best" from="159081725#6" to="-43314603#6"/>
    <trip id="bus170" type="bus_bus" depart="80.79" departLane="best" from="759240581" to="13373161#2"/>
    <trip id="bus171" type="bus_bus" depart="81.26" departLane="best" from="518268777#10" to="-13424287#0"/>
    <trip id="bus172" type="bus_bus" depart="81.74" departLane="best" from="673066126#2" to="-159081725#12"/>
    <trip id="bus173" type="bus_bus" depart="82.21" departLane="best" departSpeed="max" from="622928277" to="-165880078#11"/>
    <trip id="bus174" type="bus_bus" depart="82.69" departLane="best" departSpeed="max" from="-13417815" to="-665212184#10"/>
    <trip id="bus175" type="bus_bus" depart="83.16" departLane="best" departSpeed="max" from="165828688#0" to="-371807504#0"/>
    <trip id="bus176" type="bus_bus" depart="83.64" departLane="best" from="13468287#0" to="13338861#1"/>
    <trip id="bus177" type="bus_bus" depart="84.12" departLane="best" from="-404954691" to="13422391#10"/>
    <trip id="bus178" type="bus_bus" depart="84.59" departLane="best" departSpeed="max" from="-165792350#2" to="165774472"/>
    <trip id="bus179" type="bus_bus" depart="85.07" departLane="best" from="-129554357#1" to="47187369#2"/>
    <trip id="bus180" type="bus_bus" depart="85.54" departLane="best" from="13380898#4" to="165783262#1"/>
    <trip id="bus181" type="bus_bus" depart="86.02" departLane="best" from="165884132#2" to="159759780#5"/>
    <trip id="bus182" type="bus_bus" depart="86.49" departLane="best" from="-398387409#0" to="-13365620"/>
    <trip id="bus183" type="bus_bus" depart="86.97" departLane="best" from="159759775#3" to="-392360767#1"/>
    <trip id="bus184" type="bus_bus" depart="87.44" departLane="best" from="-383844978#1" to="398176571"/>
    <trip id="bus185" type="bus_bus" depart="87.92" departLane="best" from="165784235#2" to="-265117049"/>
    <trip id="bus186" type="bus_bus" depart="88.39" departLane="best" departSpeed="max" from="-365543073#2" to="-511823420#3"/>
    <trip id="bus187" type="bus_bus" depart="88.87" departLane="best" from="-518126704#7" to="-227892243"/>
    <trip id="bus188" type="bus_bus" depart="89.34" departLane="best" from="-13439245#0" to="-604363376#1"/>
    <trip id="bus189" type="bus_bus" depart="89.82" departLane="best" from="519598598-AddedOffRampEdge" to="159764404"/>
    <trip id="bus190" type="bus_bus" depart="90.29" departLane="best" from="398780700#0" to="136732123#4"/>
    <trip id="bus191" type="bus_bus" depart="90.77" departLane="best" from="-295757629#5" to="13385223#4"/>
    <trip id="bus192" type="bus_bus" depart="91.24" departLane="best" from="-113411288#6" to="-173666066#0"/>
    <trip id="bus193" type="bus_bus" depart="91.72" departLane="best" from="-673269353#1" to="13430314#1"/>
    <trip id="bus194" type="bus_bus" depart="92.19" departLane="best" from="159608039#1" to="13281956#3"/>
    <trip id="bus195" type="bus_bus" depart="92.67" departLane="best" from="-783237790#2" to="-165560843#0"/>
    <trip id="bus196" type="bus_bus" depart="93.14" departLane="best" from="13295686#3" to="398778791#2"/>
    <trip id="bus197" type="bus_bus" depart="93.62" departLane="best" departSpeed="max" from="37684096#0" to="-150913651#17"/>
    <trip id="bus198" type="bus_bus" depart="94.10" departLane="best" from="-13382120#9" to="13347605#1"/>
    <trip id="bus199" type="bus_bus" depart="94.57" departLane="best" from="150913665#17" to="-397996293#3"/>
    <trip id="bus200" type="bus_bus" depart="95.05" departLane="best" from="384169186#1" to="167920962#2"/>
    <trip id="bus201" type="bus_bus" depart="95.52" departLane="best" from="159764473#0" to="-165568134#0"/>
    <trip id="bus202" type="bus_bus" depart="96.00" departLane="best" from="-159759775#4" to="-13301928#3"/>
    <trip id="bus203" type="bus_bus" depart="96.47" departLane="best" from="-165782970#3" to="13294774#2"/>
    <trip id="bus204" type="bus_bus" depart="96.95" departLane="best" from="398223209" to="-13367372#8"/>
    <trip id="bus205" type="bus_bus" depart="97.42" departLane="best" from="-606824622#0" to="149009268#0"/>
    <trip id="bus206" type="bus_bus" depart="97.90" departLane="best" from="-159608220#11" to="165665935#13"/>
    <trip id="bus207" type="bus_bus" depart="98.37" departLane="best" departSpeed="max" from="13321348#0" to="-165782010#0"/>
    <trip id="bus208" type="bus_bus" depart="98.85" departLane="best" departSpeed="max" from="159608162#0" to="-13281330#7"/>
    <trip id="bus209" type="bus_bus" depart="99.32" departLane="best" departSpeed="max" from="167920394#0" to="242959377#3"/>
    <trip id="bus210" type="bus_bus" depart="99.80" departLane="best" from="-13411120#0" to="-607492381#4"/>
    <trip id="bus211" type="bus_bus" depart="100.27" departLane="best" departSpeed="max" from="-150945320#4" to="616846320#2"/>
    <trip id="bus212" type="bus_bus" depart="100.75" departLane="best" from="13352725#2" to="-13330877#2"/>
    <trip id="bus213" type="bus_bus" depart="101.22" departLane="best" from="-165783269#2" to="398209155"/>
    <trip id="bus214" type="bus_bus" depart="101.70" departLane="best" from="129554357#4" to="383987422#3"/>
    <trip id="bus215" type="bus_bus" depart="102.17" departLane="best" from="159762584#10" to="802811755"/>
    <trip id="bus216" type="bus_bus" depart="102.65" departLane="best" from="13453427#1" to="607179441#1"/>
    <trip id="bus217" type="bus_bus" depart="103.12" departLane="best" from="398592598#2" to="13470552"/>
    <trip id="bus218" type="bus_bus" depart="103.60" departLane="best" departSpeed="max" from="165784235#0" to="13327902#2"/>
    <trip id="bus219" type="bus_bus" depart="104.07" departLane="best" from="394767352#6" to="13385223#3"/>
    <trip id="bus220" type="bus_bus" depart="104.55" departLane="best" from="398724087#2" to="165884141#8"/>
    <trip id="bus221" type="bus_bus" depart="105.03" departLane="best" from="13296958#1" to="-165792368#0"/>
    <trip id="bus222" type="bus_bus" depart="105.50" departLane="best" from="-165782984#0" to="150917450#1"/>
    <trip id="bus223" type="bus_bus" depart="105.98" departLane="best" from="225342490#0" to="13356343#1"/>
    <trip id="bus224" type="bus_bus" depart="106.45" departLane="best" from="149009275#6" to="-165884133#17"/>
    <trip id="bus225" type="bus_bus" depart="106.93" departLane="best" from="-13373791#0" to="-167920966#4"/>
    <trip id="bus226" type="bus_bus" depart="107.40" departLane="best" from="-165884141#4" to="-384017395#4"/>
    <trip id="bus227" type="bus_bus" depart="107.88" departLane="best" from="13382120#4" to="-13453040#3"/>
    <trip id="bus228" type="bus_bus" depart="108.35" departLane="best" from="-165665952#6" to="165568135#0"/>
    <trip id="bus229" type="bus_bus" depart="108.83" departLane="best" from="165774467#0" to="-13357343#4"/>
    <trip id="bus230" type="bus_bus" depart="109.30" departLane="best" departSpeed="max" from="-55336166#9" to="13381603#3"/>
    <trip id="bus231" type="bus_bus" depart="109.78" departLane="best" from="-607194248#0" to="-159764475#6"/>
    <trip id="bus232" type="bus_bus" depart="110.25" departLane="best" from="-607540319#2" to="402665250#10"/>
    <trip id="bus233" type="bus_bus" depart="110.73" departLane="best" from="13440951#0" to="165665929#7"/>
    <trip id="bus234" type="bus_bus" depart="111.20" departLane="best" from="398233615#2" to="22728202#1"/>
    <trip id="bus235" type="bus_bus" depart="111.68" departLane="best" from="-400216786" to="-13281948#0"/>
    <trip id="bus236" type="bus_bus" depart="112.15" departLane="best" from="-398361715#0" to="173640718"/>
    <trip id="bus237" type="bus_bus" depart="112.63" departLane="best" from="398231602#2" to="607540310#2"/>
    <trip id="bus238" type="bus_bus" depart="113.10" departLane="best" from="-607540312#4" to="165884178#0"/>
    <trip id="bus239" type="bus_bus" depart="113.58" departLane="best" from="13389761#22" to="13458354#1"/>
    <trip id="bus240" type="bus_bus" depart="114.05" departLane="best" from="-165568113#2" to="-165568098#0"/>
    <trip id="bus241" type="bus_bus" depart="114.53" departLane="best" from="-723702777#0" to="-13310676#0"/>
    <trip id="bus242" type="bus_bus" depart="115.01" departLane="best" from="-398027276#5" to="160421676#1"/>
    <trip id="bus243" type="bus_bus" depart="115.48" departLane="best" from="-522644537" to="-149003093#11"/>
    <trip id="bus244" type="bus_bus" depart="115.96" departLane="best" departSpeed="max" from="13291247" to="-13440951#2"/>
    <trip id="bus245" type="bus_bus" depart="116.43" departLane="best" from="148747110#0" to="-13307839#0"/>
    <trip id="bus246" type="bus_bus" depart="116.91" departLane="best" from="-43314603#5" to="13408249"/>
    <trip id="bus247" type="bus_bus" depart="117.38" departLane="best" from="-13309048#3" to="150945324#0"/>
    <trip id="bus248" type="bus_bus" depart="117.86" departLane="best" from="-13450282#2" to="13274081#1"/>
    <trip id="bus249" type="bus_bus" depart="118.33" departLane="best" departSpeed="max" from="-13333532#4" to="-398754265#0"/>
    <trip id="bus250" type="bus_bus" depart="118.81" departLane="best" from="-165560824#7" to="-384176166#2"/>
    <trip id="bus252" type="bus_bus" depart="119.76" departLane="best" from="167920435" to="397973595#1"/>
    <trip id="bus253" type="bus_bus" depart="120.23" departLane="best" departSpeed="max" from="-165790331" to="-13379905#0"/>
    <trip id="bus254" type="bus_bus" depart="120.71" departLane="best" from="-13296733#7" to="13376660#4"/>
    <trip id="bus255" type="bus_bus" depart="121.18" departLane="best" from="885022123" to="-398231694#0"/>
    <trip id="bus256" type="bus_bus" depart="121.66" departLane="best" from="159606721#5" to="295757629#5"/>
    <trip id="bus257" type="bus_bus" depart="122.13" departLane="best" from="159608006#1" to="173876487"/>
    <trip id="bus258" type="bus_bus" depart="122.61" departLane="best" from="604116004" to="-159759782#1"/>
    <trip id="bus259" type="bus_bus" depart="123.08" departLane="best" departSpeed="max" from="-13296924#5" to="-13470454#2"/>
    <trip id="bus260" type="bus_bus" depart="123.56" departLane="best" from="-13438494#0" to="159759775#4"/>
    <trip id="bus261" type="bus_bus" depart="124.03" departLane="best" departSpeed="max" from="13417403#0" to="-165568082#1"/>
    <trip id="bus262" type="bus_bus" depart="124.51" departLane="best" from="165665952#0" to="229945452#6"/>