<?xml version="1.0" encoding="UTF-8"?>

<!-- generated on Sun Dec 20 13:42:38 2020 by Eclipse SUMO duarouter Version 1.8.0
<configuration xmlns:xsi="http://www.w3.org/2001/XMLSchema-instance" xsi:noNamespaceSchemaLocation="http://sumo.dlr.de/xsd/duarouterConfiguration.xsd">

    <input>
        <net-file value="/Users/ayushs/dev/warpdriv-simulation/2020-12-20-13-37-59/osm.net.xml"/>
        <route-files value="/Users/ayushs/dev/warpdriv-simulation/2020-12-20-13-37-59/osm.passenger.trips.xml"/>
    </input>

    <output>
        <output-file value="/Users/ayushs/dev/warpdriv-simulation/2020-12-20-13-37-59/osm.passenger.trips.xml.tmp"/>
        <write-trips value="true"/>
    </output>

    <time>
        <begin value="0"/>
        <end value="3600"/>
    </time>

    <report>
        <no-warnings value="true"/>
        <ignore-errors value="true"/>
        <no-step-log value="true"/>
    </report>

</configuration>
-->

<routes xmlns:xsi="http://www.w3.org/2001/XMLSchema-instance" xsi:noNamespaceSchemaLocation="http://sumo.dlr.de/xsd/routes_file.xsd">
    <vType id="veh_passenger" vClass="passenger"/>
    <trip id="veh0" type="veh_passenger" depart="0.00" departLane="best" from="165884166#5" to="-13314174#2"/>
    <trip id="veh1" type="veh_passenger" depart="0.16" departLane="best" from="-398231519#1" to="-27958312#3"/>
    <trip id="veh2" type="veh_passenger" depart="0.32" departLane="best" from="384280110" to="288116301#7"/>
    <trip id="veh3" type="veh_passenger" depart="0.48" departLane="best" from="404954673#0" to="-13435166#2"/>
    <trip id="veh4" type="veh_passenger" depart="0.63" departLane="best" departSpeed="max" from="13280428#0" to="-13324027#0"/>
    <trip id="veh5" type="veh_passenger" depart="0.79" departLane="best" from="-265895132#1" to="13419362#5"/>
    <trip id="veh6" type="veh_passenger" depart="0.95" departLane="best" from="-13319176#1" to="-165884109#10"/>
    <trip id="veh7" type="veh_passenger" depart="1.11" departLane="best" from="176996128-AddedOffRampEdge" to="149003072#0"/>
    <trip id="veh8" type="veh_passenger" depart="1.27" departLane="best" from="-288116300#1" to="159763301#1"/>
    <trip id="veh9" type="veh_passenger" depart="1.43" departLane="best" from="398357487" to="-13285044#0"/>
    <trip id="veh10" type="veh_passenger" depart="1.58" departLane="best" from="398259447" to="383837004#0"/>
    <trip id="veh11" type="veh_passenger" depart="1.74" departLane="best" from="-398785881" to="-165560832#5"/>
    <trip id="veh12" type="veh_passenger" depart="1.90" departLane="best" from="644695812#2" to="-398754265#0"/>
    <trip id="veh13" type="veh_passenger" depart="2.06" departLane="best" from="-13443877#4" to="-13450697#1"/>
    <trip id="veh14" type="veh_passenger" depart="2.22" departLane="best" from="398551387#2" to="165568134#0"/>
    <trip id="veh15" type="veh_passenger" depart="2.38" departLane="best" from="398357461" to="384170360#1"/>
    <trip id="veh16" type="veh_passenger" depart="2.54" departLane="best" from="148356675#2" to="747988908#0"/>
    <trip id="veh17" type="veh_passenger" depart="2.69" departLane="best" from="-604115986#1" to="150911628#3"/>
    <trip id="veh18" type="veh_passenger" depart="2.85" departLane="best" from="398382773#6" to="165782960"/>
    <trip id="veh19" type="veh_passenger" depart="3.01" departLane="best" from="398593623" to="159608047#1"/>
    <trip id="veh20" type="veh_passenger" depart="3.17" departLane="best" from="384136409#2" to="-13359486#0"/>
    <trip id="veh21" type="veh_passenger" depart="3.33" departLane="best" from="-353920849#1" to="-398235801#0"/>
    <trip id="veh22" type="veh_passenger" depart="3.49" departLane="best" from="-13419364#7" to="-371824638#0"/>
    <trip id="veh23" type="veh_passenger" depart="3.64" departLane="best" from="-13458617#1" to="-398231514#0"/>
    <trip id="veh24" type="veh_passenger" depart="3.80" departLane="best" from="165884109#10" to="-405294891"/>
    <trip id="veh25" type="veh_passenger" depart="3.96" departLane="best" from="-517759014" to="-173876490#0"/>
    <trip id="veh26" type="veh_passenger" depart="4.12" departLane="best" from="-398027276#0" to="563180940#0"/>
    <trip id="veh27" type="veh_passenger" depart="4.28" departLane="best" from="176054501#9" to="165665949#0"/>
    <trip id="veh28" type="veh_passenger" depart="4.44" departLane="best" from="-165771657#14" to="384169456"/>
    <trip id="veh29" type="veh_passenger" depart="4.59" departLane="best" from="-165568135#2" to="-522644537"/>
    <trip id="veh30" type="veh_passenger" depart="4.75" departLane="best" from="829119490#4" to="165884142#4"/>
    <trip id="veh31" type="veh_passenger" depart="4.91" departLane="best" from="159081732" to="331162062#5"/>
    <trip id="veh32" type="veh_passenger" depart="5.07" departLane="best" from="398542843#1" to="398152534"/>
    <trip id="veh33" type="veh_passenger" depart="5.23" departLane="best" from="-365543073#0" to="-13326227"/>
    <trip id="veh34" type="veh_passenger" depart="5.39" departLane="best" from="-398414264" to="-398023723#2"/>
    <trip id="veh35" type="veh_passenger" depart="5.55" departLane="best" from="-19244147" to="606824622#2"/>
    <trip id="veh36" type="veh_passenger" depart="5.70" departLane="best" from="398771137#0" to="-398382782#2"/>
    <trip id="veh37" type="veh_passenger" depart="5.86" departLane="best" from="185735929#4" to="-651573513#8"/>
    <trip id="veh38" type="veh_passenger" depart="6.02" departLane="best" from="429145365#1" to="13332273#2"/>
    <trip id="veh39" type="veh_passenger" depart="6.18" departLane="best" from="-398023723#10" to="-384160624#1"/>
    <trip id="veh40" type="veh_passenger" depart="6.34" departLane="best" from="159605386#0" to="-397999541#0"/>
    <trip id="veh41" type="veh_passenger" depart="6.50" departLane="best" from="159763307#8" to="404964735"/>
    <trip id="veh42" type="veh_passenger" depart="6.65" departLane="best" from="-732479169" to="-24655523#1"/>
    <trip id="veh43" type="veh_passenger" depart="6.81" departLane="best" from="867901243" to="13427321#0"/>
    <trip id="veh44" type="veh_passenger" depart="6.97" departLane="best" from="-13439861#5" to="-13362258#3"/>
    <trip id="veh45" type="veh_passenger" depart="7.13" departLane="best" from="-136732123#7" to="165792356"/>
    <trip id="veh46" type="veh_passenger" depart="7.29" departLane="best" from="398231692#3" to="124550370"/>
    <trip id="veh47" type="veh_passenger" depart="7.45" departLane="best" from="-13388651#2" to="-55336166#5"/>
    <trip id="veh48" type="veh_passenger" depart="7.61" departLane="best" from="866612473#0" to="13462539#4"/>
    <trip id="veh49" type="veh_passenger" depart="7.76" departLane="best" from="746822866#0" to="398593626#1"/>
    <trip id="veh50" type="veh_passenger" depart="7.92" departLane="best" departSpeed="max" from="-13294401#5" to="384151476#0"/>
    <trip id="veh51" type="veh_passenger" depart="8.08" departLane="best" departSpeed="max" from="30968317" to="136914688#0"/>
    <trip id="veh52" type="veh_passenger" depart="8.24" departLane="best" from="-398025244#2" to="165884157#5"/>
    <trip id="veh53" type="veh_passenger" depart="8.40" departLane="best" from="13329309#3" to="644695812#8"/>
    <trip id="veh54" type="veh_passenger" depart="8.56" departLane="best" from="398770660#0" to="-398000203#2"/>
    <trip id="veh55" type="veh_passenger" depart="8.71" departLane="best" from="13422196#0" to="-165782962#0"/>
    <trip id="veh56" type="veh_passenger" depart="8.87" departLane="best" from="405629152#2" to="398725524"/>
    <trip id="veh57" type="veh_passenger" depart="9.03" departLane="best" departSpeed="max" from="-398364652#1" to="165884134#2"/>
    <trip id="veh58" type="veh_passenger" depart="9.19" departLane="best" departSpeed="max" from="165772567#0" to="-161505914#1"/>
    <trip id="veh59" type="veh_passenger" depart="9.35" departLane="best" from="398013536#1" to="148211144#22"/>
    <trip id="veh60" type="veh_passenger" depart="9.51" departLane="best" from="398209498" to="13465701#1"/>
    <trip id="veh61" type="veh_passenger" depart="9.66" departLane="best" departSpeed="max" from="-113414374#1" to="-398548488#0"/>
    <trip id="veh62" type="veh_passenger" depart="9.82" departLane="best" departSpeed="max" from="-13309045" to="51805348-AddedOffRampEdge"/>
    <trip id="veh63" type="veh_passenger" depart="9.98" departLane="best" from="398775795#1" to="398382785#4"/>
    <trip id="veh64" type="veh_passenger" depart="10.14" departLane="best" from="-398382769#0" to="-13379336#3"/>
    <trip id="veh65" type="veh_passenger" depart="10.30" departLane="best" from="398775791#0" to="607540312#2"/>
    <trip id="veh66" type="veh_passenger" depart="10.46" departLane="best" from="-13432081#1" to="13383259#1"/>
    <trip id="veh67" type="veh_passenger" depart="10.62" departLane="best" from="-13397594" to="398002966#1"/>
    <trip id="veh68" type="veh_passenger" depart="10.77" departLane="best" from="398023726" to="-159081725#0"/>
    <trip id="veh69" type="veh_passenger" depart="10.93" departLane="best" departSpeed="max" from="13376351#0" to="149009299#2"/>
    <trip id="veh70" type="veh_passenger" depart="11.09" departLane="best" from="-398023723#3" to="398754263#1"/>
    <trip id="veh71" type="veh_passenger" depart="11.25" departLane="best" from="13281948#2" to="-181454627#4"/>
    <trip id="veh72" type="veh_passenger" depart="11.41" departLane="best" from="148747109#4" to="384171788#0"/>
    <trip id="veh73" type="veh_passenger" depart="11.57" departLane="best" from="-165884184#0" to="-398382763"/>
    <trip id="veh74" type="veh_passenger" depart="11.72" departLane="best" from="864088518" to="176061289"/>
    <trip id="veh75" type="veh_passenger" depart="11.88" departLane="best" departSpeed="max" from="13307839#0" to="13441202#0"/>
    <trip id="veh76" type="veh_passenger" depart="12.04" departLane="best" departSpeed="max" from="-150911628#3" to="-295756012#17"/>
    <trip id="veh77" type="veh_passenger" depart="12.20" departLane="best" from="-398781877" to="159762584#6"/>
    <trip id="veh78" type="veh_passenger" depart="12.36" departLane="best" from="-371824638#1" to="-263305634#3"/>
    <trip id="veh79" type="veh_passenger" depart="12.52" departLane="best" from="-13403934#4" to="165880075#0"/>
    <trip id="veh80" type="veh_passenger" depart="12.68" departLane="best" from="-358729352#1" to="405294868"/>
    <trip id="veh81" type="veh_passenger" depart="12.83" departLane="best" from="398591382#1" to="-13406485"/>
    <trip id="veh82" type="veh_passenger" depart="12.99" departLane="best" from="-384136890#3" to="265895132#0"/>
    <trip id="veh83" type="veh_passenger" depart="13.15" departLane="best" from="-237019988#1" to="-159605410#1"/>
    <trip id="veh84" type="veh_passenger" depart="13.31" departLane="best" from="521906685" to="159606724#2"/>
    <trip id="veh85" type="veh_passenger" depart="13.47" departLane="best" from="13370598#0" to="398231529#2"/>
    <trip id="veh86" type="veh_passenger" depart="13.63" departLane="best" from="398357464" to="-165838916#7"/>
    <trip id="veh87" type="veh_passenger" depart="13.78" departLane="best" from="-13450697#1" to="13288240"/>
    <trip id="veh88" type="veh_passenger" depart="13.94" departLane="best" from="13281956#3" to="13352725#1"/>
    <trip id="veh89" type="veh_passenger" depart="14.10" departLane="best" from="384170360#2" to="27165238"/>
    <trip id="veh90" type="veh_passenger" depart="14.26" departLane="best" from="779866238" to="-13454318#0"/>
    <trip id="veh91" type="veh_passenger" depart="14.42" departLane="best" from="-759244280" to="-398771136#1"/>
    <trip id="veh92" type="veh_passenger" depart="14.58" departLane="best" from="398593622" to="-384168789"/>
    <trip id="veh93" type="veh_passenger" depart="14.73" departLane="best" from="-165880078#5" to="13314573#1"/>
    <trip id="veh94" type="veh_passenger" depart="14.89" departLane="best" departSpeed="max" from="13280428#0" to="-398231517"/>
    <trip id="veh95" type="veh_passenger" depart="15.05" departLane="best" from="-384278925#1" to="49288749"/>
    <trip id="veh96" type="veh_passenger" depart="15.21" departLane="best" from="13313395#1" to="398593628#1"/>
    <trip id="veh97" type="veh_passenger" depart="15.37" departLane="best" from="150917457#1" to="-13365776#6"/>
    <trip id="veh98" type="veh_passenger" depart="15.53" departLane="best" departSpeed="max" from="879314603#0" to="398387407#0"/>
    <trip id="veh99" type="veh_passenger" depart="15.69" departLane="best" from="734416658#0" to="51538540"/>
    <trip id="veh100" type="veh_passenger" depart="15.84" departLane="best" from="398559090#2" to="-165665935#7"/>
    <trip id="veh101" type="veh_passenger" depart="16.00" departLane="best" from="13394270#1" to="-19233693#1"/>
    <trip id="veh102" type="veh_passenger" depart="16.16" departLane="best" from="-746822866#3" to="-133801083#5"/>
    <trip id="veh103" type="veh_passenger" depart="16.32" departLane="best" from="-604159978#1" to="783237791#3"/>
    <trip id="veh104" type="veh_passenger" depart="16.48" departLane="best" from="-398023723#6" to="398231525"/>
    <trip id="veh105" type="veh_passenger" depart="16.64" departLane="best" from="13330914#4" to="124550370"/>
    <trip id="veh106" type="veh_passenger" depart="16.79" departLane="best" from="644695812#5" to="864071548-AddedOffRampEdge"/>
    <trip id="veh107" type="veh_passenger" depart="16.95" departLane="best" departSpeed="max" from="159064686#0" to="384148377"/>
    <trip id="veh108" type="veh_passenger" depart="17.11" departLane="best" from="-165560824#9" to="-398361694"/>
    <trip id="veh109" type="veh_passenger" depart="17.27" departLane="best" from="732479174#1" to="159608169"/>
    <trip id="veh110" type="veh_passenger" depart="17.43" departLane="best" from="149003102#1" to="397474478#1"/>
    <trip id="veh111" type="veh_passenger" depart="17.59" departLane="best" from="-13376660#9" to="159756852#3"/>
    <trip id="veh112" type="veh_passenger" depart="17.75" departLane="best" departSpeed="max" from="13427041" to="398584902#1"/>
    <trip id="veh113" type="veh_passenger" depart="17.90" departLane="best" departSpeed="max" from="-165568057#2" to="689959152"/>
    <trip id="veh114" type="veh_passenger" depart="18.06" departLane="best" from="-13420494#0" to="-165790328#0"/>
    <trip id="veh115" type="veh_passenger" depart="18.22" departLane="best" from="165568082#3" to="27958312#6"/>
    <trip id="veh116" type="veh_passenger" depart="18.38" departLane="best" from="-383982946#1" to="-149009299#3"/>
    <trip id="veh117" type="veh_passenger" depart="18.54" departLane="best" from="404954662#0" to="-384151476#3"/>
    <trip id="veh118" type="veh_passenger" depart="18.70" departLane="best" from="165568073#7" to="165782970#14"/>
    <trip id="veh119" type="veh_passenger" depart="18.85" departLane="best" from="129553646#0" to="159684845#5"/>
    <trip id="veh120" type="veh_passenger" depart="19.01" departLane="best" from="13461449#4" to="539608082#1"/>
    <trip id="veh121" type="veh_passenger" depart="19.17" departLane="best" from="-167920967#3" to="384146141#1"/>
    <trip id="veh122" type="veh_passenger" depart="19.33" departLane="best" from="-384138484#1" to="-663058533"/>
    <trip id="veh123" type="veh_passenger" depart="19.49" departLane="best" from="27165208" to="-398361723#0"/>
    <trip id="veh124" type="veh_passenger" depart="19.65" departLane="best" from="-398417149#1" to="397973596#3"/>
    <trip id="veh125" type="veh_passenger" depart="19.81" departLane="best" from="-13406550#8" to="13330877#5"/>
    <trip id="veh126" type="veh_passenger" depart="19.96" departLane="best" from="868875281#0" to="865180372#0"/>
    <trip id="veh127" type="veh_passenger" depart="20.12" departLane="best" departSpeed="max" from="-13406937" to="-185735929#2"/>
    <trip id="veh128" type="veh_passenger" depart="20.28" departLane="best" from="-398023723#6" to="524446544#2"/>
    <trip id="veh129" type="veh_passenger" depart="20.44" departLane="best" from="398783439#0" to="398780700#0"/>
    <trip id="veh130" type="veh_passenger" depart="20.60" departLane="best" departSpeed="max" from="-51538564#1" to="-165568068#2"/>
    <trip id="veh131" type="veh_passenger" depart="20.76" departLane="best" from="398387375#1" to="384001506#1"/>
    <trip id="veh132" type="veh_passenger" depart="20.91" departLane="best" from="165774475#1" to="808622756#1"/>
    <trip id="veh133" type="veh_passenger" depart="21.07" departLane="best" from="185399269#1" to="-13288658#2"/>
    <trip id="veh134" type="veh_passenger" depart="21.23" departLane="best" from="398361729#1" to="-398361718"/>
    <trip id="veh135" type="veh_passenger" depart="21.39" departLane="best" from="24655523#1" to="603942817"/>
    <trip id="veh136" type="veh_passenger" depart="21.55" departLane="best" from="-159606596#4" to="-148747107#0"/>
    <trip id="veh137" type="veh_passenger" depart="21.71" departLane="best" from="-13470331#3" to="150913652#4"/>
    <trip id="veh138" type="veh_passenger" depart="21.86" departLane="best" from="-398227135#0" to="165665927#1"/>
    <trip id="veh140" type="veh_passenger" depart="22.18" departLane="best" from="165884089" to="-398003909"/>
    <trip id="veh141" type="veh_passenger" depart="22.34" departLane="best" from="13400218#8" to="405294868"/>
    <trip id="veh142" type="veh_passenger" depart="22.50" departLane="best" from="398548488#0" to="-13443891#2"/>
    <trip id="veh143" type="veh_passenger" depart="22.66" departLane="best" from="13281956#3" to="-398231497#3"/>
    <trip id="veh144" type="veh_passenger" depart="22.82" departLane="best" from="-13280907#1" to="398043607"/>
    <trip id="veh145" type="veh_passenger" depart="22.97" departLane="best" departSpeed="max" from="165884135" to="-397996286"/>
    <trip id="veh146" type="veh_passenger" depart="23.13" departLane="best" from="384292415#1" to="150911625#9"/>
    <trip id="veh147" type="veh_passenger" depart="23.29" departLane="best" from="13291245#3" to="-13291249"/>
    <trip id="veh148" type="veh_passenger" depart="23.45" departLane="best" departSpeed="max" from="-13410775#2" to="400003949"/>
    <trip id="veh149" type="veh_passenger" depart="23.61" departLane="best" departSpeed="max" from="405274412" to="149003088#12"/>
    <trip id="veh150" type="veh_passenger" depart="23.77" departLane="best" from="398387390#1" to="159608584#0"/>
    <trip id="veh151" type="veh_passenger" depart="23.92" departLane="best" from="-159762586" to="-156414173#0"/>
    <trip id="veh152" type="veh_passenger" depart="24.08" departLane="best" from="-398382773#7" to="404964745#1"/>
    <trip id="veh153" type="veh_passenger" depart="24.24" departLane="best" from="398235798" to="398593626#0"/>
    <trip id="veh154" type="veh_passenger" depart="24.40" departLane="best" from="404964730" to="-176054501#2"/>
    <trip id="veh155" type="veh_passenger" depart="24.56" departLane="best" from="-384278853" to="-13462539#4"/>
    <trip id="veh156" type="veh_passenger" depart="24.72" departLane="best" from="398222720" to="400216783"/>
    <trip id="veh157" type="veh_passenger" depart="24.88" departLane="best" from="-81307782#8" to="165782977#1"/>
    <trip id="veh158" type="veh_passenger" depart="25.03" departLane="best" from="-165560824#2" to="518127185"/>
    <trip id="veh159" type="veh_passenger" depart="25.19" departLane="best" from="398597044#1" to="759244278"/>
    <trip id="veh160" type="veh_passenger" depart="25.35" departLane="best" from="398359039" to="398785876"/>
    <trip id="veh161" type="veh_passenger" depart="25.51" departLane="best" from="-13316527#4" to="384279655#3"/>
    <trip id="veh162" type="veh_passenger" depart="25.67" departLane="best" from="-398754269#3" to="518268777#2"/>
    <trip id="veh163" type="veh_passenger" depart="25.83" departLane="best" from="398241777#0" to="398597960#1"/>
    <trip id="veh164" type="veh_passenger" depart="25.98" departLane="best" from="398359039" to="-398013537#0"/>
    <trip id="veh165" type="veh_passenger" depart="26.14" departLane="best" from="398231581" to="-13470891#0"/>
    <trip id="veh166" type="veh_passenger" depart="26.30" departLane="best" from="398728183" to="398592598#3"/>
    <trip id="veh167" type="veh_passenger" depart="26.46" departLane="best" from="-295757629#17" to="398361729#0"/>
    <trip id="veh168" type="veh_passenger" depart="26.62" departLane="best" from="13345479#2" to="-398364713"/>
    <trip id="veh169" type="veh_passenger" depart="26.78" departLane="best" from="398235789#1" to="-301869639#0"/>
    <trip id="veh170" type="veh_passenger" depart="26.93" departLane="best" departSpeed="max" from="-13314090" to="-165880078#5"/>
    <trip id="veh171" type="veh_passenger" depart="27.09" departLane="best" from="-398718337#4" to="398598959"/>
    <trip id="veh172" type="veh_passenger" depart="27.25" departLane="best" from="723702777#4" to="-398231527"/>
    <trip id="veh173" type="veh_passenger" depart="27.41" departLane="best" from="167009681#0" to="-694625943#0"/>
    <trip id="veh174" type="veh_passenger" depart="27.57" departLane="best" from="768704912" to="136913616"/>
    <trip id="veh175" type="veh_passenger" depart="27.73" departLane="best" from="55336167" to="-148455914#1"/>
    <trip id="veh176" type="veh_passenger" depart="27.89" departLane="best" from="745181133#4" to="-165782961#0"/>
    <trip id="veh177" type="veh_passenger" depart="28.04" departLane="best" from="683730544" to="-398009815"/>
    <trip id="veh178" type="veh_passenger" depart="28.20" departLane="best" from="-13470897#4" to="13293872#1"/>
    <trip id="veh179" type="veh_passenger" depart="28.36" departLane="best" from="384169520" to="-398382775#7"/>
    <trip id="veh180" type="veh_passenger" depart="28.52" departLane="best" from="165665952#6" to="13431469#5"/>
    <trip id="veh181" type="veh_passenger" depart="28.68" departLane="best" from="-607540318" to="159608045#0-AddedOffRampEdge"/>
    <trip id="veh182" type="veh_passenger" depart="28.84" departLane="best" from="-394767352#5" to="384142271#0"/>
    <trip id="veh183" type="veh_passenger" depart="28.99" departLane="best" from="-129554357#1" to="509312972"/>
    <trip id="veh184" type="veh_passenger" depart="29.15" departLane="best" from="148455910#5" to="384149483#1"/>
    <trip id="veh185" type="veh_passenger" depart="29.31" departLane="best" from="391441052#3" to="27165091-AddedOnRampEdge"/>
    <trip id="veh186" type="veh_passenger" depart="29.47" departLane="best" from="-450682430" to="-13403934#7"/>
    <trip id="veh187" type="veh_passenger" depart="29.63" departLane="best" from="24812856-AddedOffRampEdge" to="-398583284#1"/>
    <trip id="veh188" type="veh_passenger" depart="29.79" departLane="best" from="-398387407#0" to="398560879#0"/>
    <trip id="veh189" type="veh_passenger" depart="29.95" departLane="best" from="384150943#1" to="-398361725"/>
    <trip id="veh190" type="veh_passenger" depart="30.10" departLane="best" from="-398382778" to="-768081251"/>
    <trip id="veh191" type="veh_passenger" depart="30.26" departLane="best" from="-759240591#0" to="-398361684#0"/>
    <trip id="veh192" type="veh_passenger" depart="30.42" departLane="best" from="-150945323#5" to="124165195-AddedOffRampEdge"/>
    <trip id="veh193" type="veh_passenger" depart="30.58" departLane="best" from="57370522#7" to="295756012#14"/>
    <trip id="veh194" type="veh_passenger" depart="30.74" departLane="best" from="405093845" to="165774478#0"/>
    <trip id="veh195" type="veh_passenger" depart="30.90" departLane="best" from="-398364724" to="149009268#1"/>
    <trip id="veh196" type="veh_passenger" depart="31.05" departLane="best" from="-113411288#8" to="-398231692#1"/>
    <trip id="veh197" type="veh_passenger" depart="31.21" departLane="best" from="13294401#1" to="159608219#3"/>
    <trip id="veh198" type="veh_passenger" depart="31.37" departLane="best" from="185399301" to="13348581#1"/>
    <trip id="veh199" type="veh_passenger" depart="31.53" departLane="best" departSpeed="max" from="13311992" to="-19233693#1"/>
    <trip id="veh200" type="veh_passenger" depart="31.69" departLane="best" from="13372031#2" to="405093847"/>
    <trip id="veh201" type="veh_passenger" depart="31.85" departLane="best" from="398235797" to="-165665952#11"/>
    <trip id="veh202" type="veh_passenger" depart="32.01" departLane="best" from="-13431351#0" to="13437989#1"/>
    <trip id="veh203" type="veh_passenger" depart="32.16" departLane="best" from="165880116#1" to="-398722006#1"/>
    <trip id="veh204" type="veh_passenger" depart="32.32" departLane="best" from="398362518" to="397973595#1"/>
    <trip id="veh205" type="veh_passenger" depart="32.48" departLane="best" from="27165235#1-AddedOnRampEdge" to="-295756012#14"/>
    <trip id="veh206" type="veh_passenger" depart="32.64" departLane="best" from="-165884157#0" to="-13313395#0"/>
    <trip id="veh207" type="veh_passenger" depart="32.80" departLane="best" from="-384160625#4" to="13367372#3"/>
    <trip id="veh208" type="veh_passenger" depart="32.96" departLane="best" from="398560879#1" to="-13408553#0"/>
    <trip id="veh209" type="veh_passenger" depart="33.11" departLane="best" from="121501753#4" to="165880068#0"/>
    <trip id="veh210" type="veh_passenger" depart="33.27" departLane="best" from="-165884078#0" to="381230014#4"/>
    <trip id="veh211" type="veh_passenger" depart="33.43" departLane="best" from="13410758#5" to="-384148144#2"/>
    <trip id="veh212" type="veh_passenger" depart="33.59" departLane="best" from="19855181" to="-13282555#1"/>
    <trip id="veh213" type="veh_passenger" depart="33.75" departLane="best" from="397973597#1" to="398033517"/>
    <trip id="veh214" type="veh_passenger" depart="33.91" departLane="best" from="-13468925#4" to="129554357#9"/>
    <trip id="veh215" type="veh_passenger" depart="34.06" departLane="best" departSpeed="max" from="-165776325" to="673066126#4"/>
    <trip id="veh216" type="veh_passenger" depart="34.22" departLane="best" departSpeed="max" from="13452731#0" to="-13365739#3"/>
    <trip id="veh217" type="veh_passenger" depart="34.38" departLane="best" from="-384177636#1" to="398560879#3"/>
    <trip id="veh218" type="veh_passenger" depart="34.54" departLane="best" from="13334079#1" to="398239920#2"/>
    <trip id="veh219" type="veh_passenger" depart="34.70" departLane="best" from="265117029#1" to="81307782#9"/>
    <trip id="veh220" type="veh_passenger" depart="34.86" departLane="best" departSpeed="max" from="165568090#0" to="608182910"/>
    <trip id="veh221" type="veh_passenger" depart="35.02" departLane="best" from="404954667" to="165772564#10"/>
    <trip id="veh222" type="veh_passenger" depart="35.17" departLane="best" from="384150188" to="13419197#6"/>
    <trip id="veh223" type="veh_passenger" depart="35.33" departLane="best" from="398382777" to="149009268#0"/>
    <trip id="veh224" type="veh_passenger" depart="35.49" departLane="best" from="404956256#1" to="392897624#3"/>
    <trip id="veh225" type="veh_passenger" depart="35.65" departLane="best" departSpeed="max" from="13375137#0" to="-397982781"/>
    <trip id="veh226" type="veh_passenger" depart="35.81" departLane="best" from="-384172056#0" to="165884105#1"/>
    <trip id="veh227" type="veh_passenger" depart="35.97" departLane="best" from="398023726" to="13448150#1"/>
    <trip id="veh228" type="veh_passenger" depart="36.12" departLane="best" from="165838916#0" to="-398218632"/>
    <trip id="veh229" type="veh_passenger" depart="36.28" departLane="best" from="-13418163#5" to="-398231674#2"/>
    <trip id="veh230" type="veh_passenger" depart="36.44" departLane="best" from="-398218634#0" to="-398387411"/>
    <trip id="veh231" type="veh_passenger" depart="36.60" departLane="best" from="149003055" to="-159608162#2"/>
    <trip id="veh232" type="veh_passenger" depart="36.76" departLane="best" from="-37685945#1" to="37685934"/>
    <trip id="veh233" type="veh_passenger" depart="36.92" departLane="best" from="384140616" to="-13389761#21"/>
    <trip id="veh234" type="veh_passenger" depart="37.08" departLane="best" from="-819343158#1" to="148356742"/>
    <trip id="veh235" type="veh_passenger" depart="37.23" departLane="best" from="124165208" to="-167920964#2"/>
    <trip id="veh236" type="veh_passenger" depart="37.39" departLane="best" from="132500434#1" to="405294862#1"/>
    <trip id="veh237" type="veh_passenger" depart="37.55" departLane="best" departSpeed="max" from="159763307#0" to="381230012#1"/>
    <trip id="veh238" type="veh_passenger" depart="37.71" departLane="best" from="398591356#3" to="398021059#1"/>
    <trip id="veh239" type="veh_passenger" depart="37.87" departLane="best" from="-606105154" to="-13284694#1"/>
    <trip id="veh240" type="veh_passenger" depart="38.03" departLane="best" from="-404956280" to="397973601#1"/>
    <trip id="veh241" type="veh_passenger" depart="38.18" departLane="best" from="398583276" to="644695812#13"/>
    <trip id="veh242" type="veh_passenger" depart="38.34" departLane="best" from="125239669#2" to="397474478#1"/>
    <trip id="veh243" type="veh_passenger" depart="38.50" departLane="best" from="150911625#3" to="165568129#10"/>
    <trip id="veh244" type="veh_passenger" depart="38.66" departLane="best" from="-288116300#4" to="-24655523#2"/>
    <trip id="veh245" type="veh_passenger" depart="38.82" departLane="best" departSpeed="max" from="13300322" to="-13321499#7"/>
    <trip id="veh246" type="veh_passenger" depart="38.98" departLane="best" from="-398775795#1" to="295757631#2"/>
    <trip id="veh247" type="veh_passenger" depart="39.13" departLane="best" from="-772803468#5" to="-165665929#3"/>
    <trip id="veh248" type="veh_passenger" depart="39.29" departLane="best" from="13364432#5" to="-156414173#2"/>
    <trip id="veh249" type="veh_passenger" depart="39.45" departLane="best" from="165790324#0" to="-13318502#0"/>
    <trip id="veh250" type="veh_passenger" depart="39.61" departLane="best" from="-688003602#3" to="159257760#3"/>