<?xml version="1.0" encoding="UTF-8"?>

<!-- generated on Sun Dec 20 16:37:48 2020 by Eclipse SUMO duarouter Version 1.8.0
<configuration xmlns:xsi="http://www.w3.org/2001/XMLSchema-instance" xsi:noNamespaceSchemaLocation="http://sumo.dlr.de/xsd/duarouterConfiguration.xsd">

    <input>
        <net-file value="osm.net.xml"/>
        <route-files value="osm.passengerGaussian.trips.xml"/>
    </input>

    <output>
        <output-file value="osm.passengerGaussian.trips.xml.tmp"/>
        <write-trips value="true"/>
    </output>

    <time>
        <begin value="0"/>
        <end value="3600"/>
    </time>

    <report>
        <no-warnings value="true"/>
        <ignore-errors value="true"/>
        <no-step-log value="true"/>
    </report>

</configuration>
-->

<routes xmlns:xsi="http://www.w3.org/2001/XMLSchema-instance" xsi:noNamespaceSchemaLocation="http://sumo.dlr.de/xsd/routes_file.xsd">
    <vType id="veh_passenger" vClass="passenger"/>
    <trip id="veh0" type="veh_passenger" depart="428.00" departLane="best" departSpeed="max" from="13458259#0" to="-13298600"/>
    <trip id="veh1" type="veh_passenger" depart="429.00" departLane="best" departSpeed="max" from="-165776321#2" to="-150913656"/>
    <trip id="veh2" type="veh_passenger" depart="430.00" departLane="best" departSpeed="max" from="-150913648" to="13294774#2"/>
    <trip id="veh3" type="veh_passenger" depart="431.00" departLane="best" departSpeed="max" from="-13299224#2" to="-13464140"/>
    <trip id="veh4" type="veh_passenger" depart="432.00" departLane="best" departSpeed="max" from="13466770" to="13327894"/>
    <trip id="veh5" type="veh_passenger" depart="433.00" departLane="best" departSpeed="max" from="176996128" to="-13281948#0"/>
    <trip id="veh6" type="veh_passenger" depart="434.00" departLane="best" departSpeed="max" from="176996128" to="13470552"/>
    <trip id="veh7" type="veh_passenger" depart="435.00" departLane="best" departSpeed="max" from="-365598593" to="-13427784#1"/>
    <trip id="veh8" type="veh_passenger" depart="436.00" departLane="best" departSpeed="max" from="622928277" to="-167920372#0"/>
    <trip id="veh9" type="veh_passenger" depart="437.00" departLane="best" departSpeed="max" from="-13365780" to="-13361642#0"/>
    <trip id="veh10" type="veh_passenger" depart="438.00" departLane="best" departSpeed="max" from="383013769" to="13381757#7"/>
    <trip id="veh11" type="veh_passenger" depart="439.00" departLane="best" departSpeed="max" from="-524962751" to="13333477"/>
    <trip id="veh12" type="veh_passenger" depart="440.00" departLane="best" departSpeed="max" from="301869716#0" to="13395656"/>
    <trip id="veh13" type="veh_passenger" depart="441.00" departLane="best" departSpeed="max" from="398158787#0" to="13365615#6"/>
    <trip id="veh14" type="veh_passenger" depart="442.00" departLane="best" departSpeed="max" from="159763307#0" to="-13312215"/>
    <trip id="veh15" type="veh_passenger" depart="443.00" departLane="best" departSpeed="max" from="-13373410" to="-165774461"/>
    <trip id="veh16" type="veh_passenger" depart="444.00" departLane="best" departSpeed="max" from="-404988216#1" to="-13468856#0"/>
    <trip id="veh17" type="veh_passenger" depart="445.00" departLane="best" departSpeed="max" from="-165665945#2" to="665212183#1"/>
    <trip id="veh18" type="veh_passenger" depart="446.00" departLane="best" departSpeed="max" from="13465701#0" to="13384707#1"/>
    <trip id="veh19" type="veh_passenger" depart="447.00" departLane="best" departSpeed="max" from="-13437008#1" to="159608021"/>
    <trip id="veh20" type="veh_passenger" depart="448.00" departLane="best" departSpeed="max" from="-13431381" to="-398218636"/>
    <trip id="veh21" type="veh_passenger" depart="449.00" departLane="best" departSpeed="max" from="859649355" to="134117953#4"/>
    <trip id="veh22" type="veh_passenger" depart="450.00" departLane="best" departSpeed="max" from="133801083#0" to="13454217"/>
    <trip id="veh23" type="veh_passenger" depart="451.00" departLane="best" departSpeed="max" from="37684096#0" to="165782977#1"/>
    <trip id="veh24" type="veh_passenger" depart="452.00" departLane="best" departSpeed="max" from="-176054499#3" to="-165568127#0"/>
    <trip id="veh25" type="veh_passenger" depart="453.00" departLane="best" departSpeed="max" from="-148215662" to="673269355"/>
    <trip id="veh26" type="veh_passenger" depart="454.00" departLane="best" departSpeed="max" from="398239900" to="-165828670#0"/>
    <trip id="veh27" type="veh_passenger" depart="455.00" departLane="best" departSpeed="max" from="404977072" to="-742089606"/>
    <trip id="veh28" type="veh_passenger" depart="456.00" departLane="best" departSpeed="max" from="-165568122#5" to="-159763305#0"/>
    <trip id="veh29" type="veh_passenger" depart="457.00" departLane="best" departSpeed="max" from="13408637#0" to="398727196#1"/>
    <trip id="veh30" type="veh_passenger" depart="458.00" departLane="best" departSpeed="max" from="-673269351" to="-148455912#0"/>
    <trip id="veh31" type="veh_passenger" depart="459.00" departLane="best" departSpeed="max" from="-13376660#12" to="13401063#1"/>
    <trip id="veh32" type="veh_passenger" depart="460.00" departLane="best" departSpeed="max" from="167920372#0" to="-4341234"/>
    <trip id="veh33" type="veh_passenger" depart="461.00" departLane="best" departSpeed="max" from="-13333532#4" to="-398218636"/>
    <trip id="veh34" type="veh_passenger" depart="462.00" departLane="best" departSpeed="max" from="-13291245#5" to="150913662"/>
    <trip id="veh35" type="veh_passenger" depart="463.00" departLane="best" departSpeed="max" from="150945307#0" to="13322070"/>
    <trip id="veh36" type="veh_passenger" depart="464.00" departLane="best" from="-13380898#3" to="-604159985#0"/>
    <trip id="veh37" type="veh_passenger" depart="465.00" departLane="best" departSpeed="max" from="398239900" to="-165568098#0"/>
    <trip id="veh38" type="veh_passenger" depart="466.00" departLane="best" departSpeed="max" from="13321499#0" to="-13443784"/>
    <trip id="veh39" type="veh_passenger" depart="467.00" departLane="best" departSpeed="max" from="403844705" to="398164477#1"/>
    <trip id="veh40" type="veh_passenger" depart="468.00" departLane="best" departSpeed="max" from="-165880108#2" to="13411114"/>
    <trip id="veh41" type="veh_passenger" depart="469.00" departLane="best" departSpeed="max" from="13432018#0" to="-13423783#0"/>
    <trip id="veh42" type="veh_passenger" depart="470.00" departLane="best" departSpeed="max" from="165790321#0" to="13324140#1"/>
    <trip id="veh43" type="veh_passenger" depart="471.00" departLane="best" departSpeed="max" from="165880105#0" to="13316675"/>
    <trip id="veh44" type="veh_passenger" depart="472.00" departLane="best" departSpeed="max" from="-113414374#1" to="-165884105#5"/>
    <trip id="veh45" type="veh_passenger" depart="473.00" departLane="best" departSpeed="max" from="-13295679" to="622928679"/>
    <trip id="veh46" type="veh_passenger" depart="474.00" departLane="best" departSpeed="max" from="398251732#0" to="288116300#8"/>
    <trip id="veh47" type="veh_passenger" depart="475.00" departLane="best" departSpeed="max" from="-165884183#1" to="-13322337#0"/>
    <trip id="veh48" type="veh_passenger" depart="476.00" departLane="best" departSpeed="max" from="398251732#0" to="684291652#1"/>
    <trip id="veh49" type="veh_passenger" depart="477.00" departLane="best" departSpeed="max" from="-13361072" to="124550370"/>
    <trip id="veh50" type="veh_passenger" depart="478.00" departLane="best" departSpeed="max" from="-13344688#1" to="165665929#0"/>
    <trip id="veh51" type="veh_passenger" depart="479.00" departLane="best" departSpeed="max" from="165790340#0" to="-13396650#0"/>
    <trip id="veh52" type="veh_passenger" depart="480.00" departLane="best" departSpeed="max" from="13303520" to="13332273#5"/>
    <trip id="veh53" type="veh_passenger" depart="481.00" departLane="best" from="-165568135#1" to="398227135#2"/>
    <trip id="veh55" type="veh_passenger" depart="483.00" departLane="best" departSpeed="max" from="13361517#0" to="159608029#3"/>
    <trip id="veh56" type="veh_passenger" depart="484.00" departLane="best" departSpeed="max" from="-13466704#4" to="-165792368#0"/>
    <trip id="veh57" type="veh_passenger" depart="485.00" departLane="best" departSpeed="max" from="124550393" to="13307839#7"/>
    <trip id="veh58" type="veh_passenger" depart="486.00" departLane="best" departSpeed="max" from="-13384799" to="-150945299"/>
    <trip id="veh59" type="veh_passenger" depart="487.00" departLane="best" departSpeed="max" from="-365598527" to="13373161#2"/>
    <trip id="veh60" type="veh_passenger" depart="488.00" departLane="best" departSpeed="max" from="-13345479#3" to="13406002"/>
    <trip id="veh61" type="veh_passenger" depart="489.00" departLane="best" departSpeed="max" from="-159257762" to="443325968"/>
    <trip id="veh62" type="veh_passenger" depart="490.00" departLane="best" departSpeed="max" from="398158787#0" to="-13328151"/>
    <trip id="veh63" type="veh_passenger" depart="491.00" departLane="best" departSpeed="max" from="-149003072#3" to="-13405759#0"/>
    <trip id="veh64" type="veh_passenger" depart="492.00" departLane="best" departSpeed="max" from="13300322" to="165790331"/>
    <trip id="veh65" type="veh_passenger" depart="493.00" departLane="best" departSpeed="max" from="176996128" to="-13454318#0"/>
    <trip id="veh66" type="veh_passenger" depart="494.00" departLane="best" departSpeed="max" from="-13367893#2" to="-518126704#1"/>
    <trip id="veh67" type="veh_passenger" depart="495.00" departLane="best" from="165665922#5" to="13443119#3"/>
    <trip id="veh68" type="veh_passenger" depart="496.00" departLane="best" departSpeed="max" from="797876019#0" to="-13362617#0"/>
    <trip id="veh69" type="veh_passenger" depart="497.00" departLane="best" departSpeed="max" from="-682585909" to="-168367856"/>
    <trip id="veh70" type="veh_passenger" depart="498.00" departLane="best" departSpeed="max" from="398158787#0" to="-160068593#0"/>
    <trip id="veh71" type="veh_passenger" depart="499.00" departLane="best" departSpeed="max" from="-13453431" to="-673066126#2"/>
    <trip id="veh72" type="veh_passenger" depart="500.00" departLane="best" departSpeed="max" from="-159756854#5" to="607194248#3"/>
    <trip id="veh73" type="veh_passenger" depart="501.00" departLane="best" departSpeed="max" from="124550393" to="397474478#1"/>
    <trip id="veh74" type="veh_passenger" depart="502.00" departLane="best" departSpeed="max" from="879314603#0" to="30968402"/>
    <trip id="veh75" type="veh_passenger" depart="503.00" departLane="best" departSpeed="max" from="687270595" to="61651878"/>
    <trip id="veh76" type="veh_passenger" depart="504.00" departLane="best" departSpeed="max" from="383013769" to="-13436063#1"/>
    <trip id="veh77" type="veh_passenger" depart="505.00" departLane="best" departSpeed="max" from="13311124" to="-136732119#0"/>
    <trip id="veh78" type="veh_passenger" depart="506.00" departLane="best" departSpeed="max" from="-673269355" to="-13322337#0"/>
    <trip id="veh79" type="veh_passenger" depart="507.00" departLane="best" departSpeed="max" from="-524962751" to="814267423#8"/>
    <trip id="veh80" type="veh_passenger" depart="508.00" departLane="best" from="-165665927#0" to="165790331"/>
    <trip id="veh81" type="veh_passenger" depart="509.00" departLane="best" departSpeed="max" from="13291247" to="-4341237#0"/>
    <trip id="veh82" type="veh_passenger" depart="510.00" departLane="best" departSpeed="max" from="622928277" to="859343581"/>
    <trip id="veh83" type="veh_passenger" depart="511.00" departLane="best" departSpeed="max" from="-13417815" to="-165782978#0"/>
    <trip id="veh84" type="veh_passenger" depart="512.00" departLane="best" departSpeed="max" from="-13328127#5" to="13367893#0"/>
    <trip id="veh85" type="veh_passenger" depart="513.00" departLane="best" departSpeed="max" from="13323868" to="381230012#1"/>
    <trip id="veh86" type="veh_passenger" depart="514.00" departLane="best" departSpeed="max" from="-13421465#3" to="720169817"/>
    <trip id="veh88" type="veh_passenger" depart="516.00" departLane="best" departSpeed="max" from="398400438" to="-159763305#0"/>
    <trip id="veh89" type="veh_passenger" depart="517.00" departLane="best" departSpeed="max" from="-720169817" to="13367893#0"/>
    <trip id="veh90" type="veh_passenger" depart="518.00" departLane="best" departSpeed="max" from="13335013#0" to="631737212#2"/>
    <trip id="veh92" type="veh_passenger" depart="520.00" departLane="best" departSpeed="max" from="-159608047#1" to="-398361695"/>
    <trip id="veh93" type="veh_passenger" depart="521.00" departLane="best" departSpeed="max" from="149009296#0" to="-165784239#2"/>
    <trip id="veh94" type="veh_passenger" depart="522.00" departLane="best" departSpeed="max" from="-176054499#3" to="165560843#0"/>
    <trip id="veh95" type="veh_passenger" depart="523.00" departLane="best" departSpeed="max" from="-13348378" to="-742089606"/>
    <trip id="veh96" type="veh_passenger" depart="524.00" departLane="best" departSpeed="max" from="879314603#0" to="859343581"/>
    <trip id="veh97" type="veh_passenger" depart="525.00" departLane="best" departSpeed="max" from="-13349551#1" to="-136732119#0"/>
    <trip id="veh98" type="veh_passenger" depart="526.00" departLane="best" from="-165665926#2" to="630875821"/>
    <trip id="veh99" type="veh_passenger" depart="527.00" departLane="best" departSpeed="max" from="398253258#0" to="398233623#1"/>
    <trip id="veh100" type="veh_passenger" depart="528.00" departLane="best" departSpeed="max" from="-404988216#1" to="-13431346#0"/>
    <trip id="veh101" type="veh_passenger" depart="529.00" departLane="best" departSpeed="max" from="30968317" to="148356681"/>
    <trip id="veh102" type="veh_passenger" depart="530.00" departLane="best" departSpeed="max" from="13434409" to="82212765#1"/>
    <trip id="veh105" type="veh_passenger" depart="533.00" departLane="best" departSpeed="max" from="148356658#0" to="668298720"/>
    <trip id="veh106" type="veh_passenger" depart="534.00" departLane="best" departSpeed="max" from="-13396136#2" to="-13381608"/>
    <trip id="veh107" type="veh_passenger" depart="535.00" departLane="best" departSpeed="max" from="-13376355#6" to="13333532#4"/>
    <trip id="veh108" type="veh_passenger" depart="536.00" departLane="best" departSpeed="max" from="-165774473" to="13381858"/>
    <trip id="veh109" type="veh_passenger" depart="537.00" departLane="best" departSpeed="max" from="165568075#0" to="-13466706"/>
    <trip id="veh110" type="veh_passenger" depart="538.00" departLane="best" departSpeed="max" from="13452731#0" to="-165568098#0"/>
    <trip id="veh111" type="veh_passenger" depart="539.00" departLane="best" departSpeed="max" from="13311992" to="443325968"/>
    <trip id="veh112" type="veh_passenger" depart="540.00" departLane="best" from="-13281956#11" to="165776323#3"/>
    <trip id="veh113" type="veh_passenger" depart="541.00" departLane="best" departSpeed="max" from="165774483#0" to="13333477"/>
    <trip id="veh114" type="veh_passenger" depart="542.00" departLane="best" departSpeed="max" from="-802811755" to="-13287933"/>
    <trip id="veh115" type="veh_passenger" depart="543.00" departLane="best" departSpeed="max" from="-13350099" to="398364652#1"/>
    <trip id="veh116" type="veh_passenger" depart="544.00" departLane="best" departSpeed="max" from="30968317" to="13367169"/>
    <trip id="veh117" type="veh_passenger" depart="545.00" departLane="best" departSpeed="max" from="-165884183#1" to="404964737#0"/>
    <trip id="veh118" type="veh_passenger" depart="546.00" departLane="best" departSpeed="max" from="398414286" to="-13470332"/>
    <trip id="veh119" type="veh_passenger" depart="547.00" departLane="best" departSpeed="max" from="-159756854#5" to="-13367921"/>
    <trip id="veh121" type="veh_passenger" depart="549.00" departLane="best" departSpeed="max" from="-687409238" to="13395743#1"/>
    <trip id="veh122" type="veh_passenger" depart="550.00" departLane="best" departSpeed="max" from="-13417815" to="622928679"/>
    <trip id="veh123" type="veh_passenger" depart="551.00" departLane="best" departSpeed="max" from="398218636" to="769195670"/>
    <trip id="veh124" type="veh_passenger" depart="552.00" departLane="best" departSpeed="max" from="-339701909" to="622928679"/>
    <trip id="veh125" type="veh_passenger" depart="553.00" departLane="best" departSpeed="max" from="176996128" to="-165568113#0"/>
    <trip id="veh127" type="veh_passenger" depart="555.00" departLane="best" from="398233620#1" to="384150565"/>
    <trip id="veh128" type="veh_passenger" depart="556.00" departLane="best" departSpeed="max" from="-150913658#8" to="180073503"/>
    <trip id="veh129" type="veh_passenger" depart="557.00" departLane="best" departSpeed="max" from="168367856" to="-159064686#0"/>
    <trip id="veh130" type="veh_passenger" depart="558.00" departLane="best" departSpeed="max" from="-13296924#5" to="-13458259#0"/>
    <trip id="veh131" type="veh_passenger" depart="559.00" departLane="best" departSpeed="max" from="-288116300#8" to="397474478#1"/>
    <trip id="veh132" type="veh_passenger" depart="560.00" departLane="best" departSpeed="max" from="13458296#0" to="-398364714#0"/>
    <trip id="veh133" type="veh_passenger" depart="561.00" departLane="best" departSpeed="max" from="55336160#0" to="-13381608"/>
    <trip id="veh134" type="veh_passenger" depart="562.00" departLane="best" departSpeed="max" from="623553697#0" to="-165568108#2"/>
    <trip id="veh135" type="veh_passenger" depart="563.00" departLane="best" departSpeed="max" from="-13376660#12" to="-604159985#0"/>
    <trip id="veh136" type="veh_passenger" depart="564.00" departLane="best" departSpeed="max" from="165568131#0" to="-165792374"/>
    <trip id="veh137" type="veh_passenger" depart="565.00" departLane="best" departSpeed="max" from="13431382" to="13297277#2"/>
    <trip id="veh138" type="veh_passenger" depart="566.00" departLane="best" departSpeed="max" from="-606824621#2" to="13364338"/>
    <trip id="veh139" type="veh_passenger" depart="567.00" departLane="best" from="-121501753#3" to="608182910"/>
    <trip id="veh140" type="veh_passenger" depart="568.00" departLane="best" departSpeed="max" from="13352725#0" to="150913660"/>
    <trip id="veh141" type="veh_passenger" depart="569.00" departLane="best" departSpeed="max" from="165774483#0" to="13438496"/>
    <trip id="veh144" type="veh_passenger" depart="572.00" departLane="best" departSpeed="max" from="-682585909" to="-165782978#0"/>
    <trip id="veh145" type="veh_passenger" depart="573.00" departLane="best" departSpeed="max" from="-13395654#1" to="-4341233#0"/>
    <trip id="veh146" type="veh_passenger" depart="574.00" departLane="best" departSpeed="max" from="55336160#0" to="13448320"/>
    <trip id="veh148" type="veh_passenger" depart="576.00" departLane="best" departSpeed="max" from="13468856#0" to="-797876019#0"/>
    <trip id="veh149" type="veh_passenger" depart="577.00" departLane="best" departSpeed="max" from="124550393" to="-136732119#0"/>
    <trip id="veh150" type="veh_passenger" depart="578.00" departLane="best" departSpeed="max" from="13300322" to="404988216#1"/>
    <trip id="veh151" type="veh_passenger" depart="579.00" departLane="best" departSpeed="max" from="168367856" to="-13437675#0"/>
    <trip id="veh152" type="veh_passenger" depart="580.00" departLane="best" departSpeed="max" from="13451157#0" to="-167011963#0"/>
    <trip id="veh153" type="veh_passenger" depart="581.00" departLane="best" departSpeed="max" from="237019983" to="159763318#0"/>
    <trip id="veh154" type="veh_passenger" depart="582.00" departLane="best" departSpeed="max" from="-13463116#1" to="-13298600"/>
    <trip id="veh155" type="veh_passenger" depart="583.00" departLane="best" departSpeed="max" from="-159608219#3" to="118836342"/>
    <trip id="veh156" type="veh_passenger" depart="584.00" departLane="best" from="384142993#1" to="-13330870#0"/>
    <trip id="veh157" type="veh_passenger" depart="585.00" departLane="best" departSpeed="max" from="-714471519" to="13405989#3"/>
    <trip id="veh159" type="veh_passenger" depart="587.00" departLane="best" departSpeed="max" from="13318502#0" to="-159762596"/>
    <trip id="veh160" type="veh_passenger" depart="588.00" departLane="best" departSpeed="max" from="13470332" to="-13280428#0"/>
    <trip id="veh161" type="veh_passenger" depart="589.00" departLane="best" departSpeed="max" from="165782977#0" to="165776321#2"/>
    <trip id="veh163" type="veh_passenger" depart="591.00" departLane="best" departSpeed="max" from="13291247" to="165884165"/>
    <trip id="veh164" type="veh_passenger" depart="592.00" departLane="best" departSpeed="max" from="148356765" to="829119490#6"/>
    <trip id="veh166" type="veh_passenger" depart="594.00" departLane="best" departSpeed="max" from="30968309" to="13329135#2"/>
    <trip id="veh167" type="veh_passenger" depart="595.00" departLane="best" departSpeed="max" from="398414286" to="159608581#0"/>
    <trip id="veh168" type="veh_passenger" depart="596.00" departLane="best" departSpeed="max" from="13301940" to="-165568059"/>
    <trip id="veh169" type="veh_passenger" depart="597.00" departLane="best" from="-159608581#1" to="13410778#2"/>
    <trip id="veh170" type="veh_passenger" depart="598.00" departLane="best" departSpeed="max" from="13445170#0" to="-165665954#3"/>
    <trip id="veh171" type="veh_passenger" depart="599.00" departLane="best" departSpeed="max" from="-13351324" to="-165774483#0"/>
    <trip id="veh172" type="veh_passenger" depart="600.00" departLane="best" departSpeed="max" from="-165774473" to="-165880079"/>
    <trip id="veh173" type="veh_passenger" depart="601.00" departLane="best" departSpeed="max" from="13361642#0" to="-13408628#0"/>
    <trip id="veh174" type="veh_passenger" depart="602.00" departLane="best" departSpeed="max" from="-159605404#1" to="13466704#4"/>
    <trip id="veh175" type="veh_passenger" depart="603.00" departLane="best" departSpeed="max" from="160068593#0" to="-13326227"/>
    <trip id="veh176" type="veh_passenger" depart="604.00" departLane="best" departSpeed="max" from="-688332626" to="13325607#1"/>
    <trip id="veh177" type="veh_passenger" depart="605.00" departLane="best" departSpeed="max" from="-714471519" to="-13468018#3"/>
    <trip id="veh178" type="veh_passenger" depart="606.00" departLane="best" departSpeed="max" from="-720169817" to="443325968"/>
    <trip id="veh179" type="veh_passenger" depart="607.00" departLane="best" departSpeed="max" from="397540645" to="165774466"/>
    <trip id="veh180" type="veh_passenger" depart="608.00" departLane="best" departSpeed="max" from="-55336166#9" to="-13280428#0"/>
    <trip id="veh181" type="veh_passenger" depart="609.00" departLane="best" departSpeed="max" from="384788447" to="706525727"/>
    <trip id="veh182" type="veh_passenger" depart="610.00" departLane="best" departSpeed="max" from="-720169817" to="159759787#2"/>
    <trip id="veh183" type="veh_passenger" depart="611.00" departLane="best" departSpeed="max" from="13367797" to="13381757#7"/>
    <trip id="veh184" type="veh_passenger" depart="612.00" departLane="best" departSpeed="max" from="113411288#0" to="-13300322"/>
    <trip id="veh185" type="veh_passenger" depart="613.00" departLane="best" departSpeed="max" from="-365543073#2" to="13448540"/>
    <trip id="veh186" type="veh_passenger" depart="614.00" departLane="best" departSpeed="max" from="-684291652#1" to="-13434409"/>
    <trip id="veh187" type="veh_passenger" depart="615.00" departLane="best" departSpeed="max" from="-13299224#2" to="134117953#4"/>
    <trip id="veh188" type="veh_passenger" depart="616.00" departLane="best" departSpeed="max" from="-13397543" to="-742821929"/>
    <trip id="veh189" type="veh_passenger" depart="617.00" departLane="best" departSpeed="max" from="-13324140#1" to="-398218636"/>
    <trip id="veh190" type="veh_passenger" depart="618.00" departLane="best" departSpeed="max" from="-148215662" to="-165884146#0"/>
    <trip id="veh191" type="veh_passenger" depart="619.00" departLane="best" departSpeed="max" from="165790320" to="-398218636"/>
    <trip id="veh192" type="veh_passenger" depart="620.00" departLane="best" departSpeed="max" from="-159762594#1" to="-13339421"/>
    <trip id="veh193" type="veh_passenger" depart="621.00" departLane="best" departSpeed="max" from="879314603#0" to="-205586786"/>
    <trip id="veh194" type="veh_passenger" depart="622.00" departLane="best" departSpeed="max" from="13468018#0" to="165568057#2"/>
    <trip id="veh195" type="veh_passenger" depart="623.00" departLane="best" from="607788599" to="-13464970"/>
    <trip id="veh196" type="veh_passenger" depart="624.00" departLane="best" departSpeed="max" from="-13295679" to="-13423783#0"/>
    <trip id="veh197" type="veh_passenger" depart="625.00" departLane="best" departSpeed="max" from="165782962#0" to="-13381608"/>
    <trip id="veh198" type="veh_passenger" depart="626.00" departLane="best" departSpeed="max" from="-13376355#6" to="-13299226#0"/>
    <trip id="veh199" type="veh_passenger" depart="627.00" departLane="best" departSpeed="max" from="622928279" to="-398364714#0"/>
    <trip id="veh200" type="veh_passenger" depart="628.00" departLane="best" departSpeed="max" from="165568059" to="-13333484#0"/>
    <trip id="veh201" type="veh_passenger" depart="629.00" departLane="best" departSpeed="max" from="159608162#0" to="13400218#1"/>
    <trip id="veh202" type="veh_passenger" depart="630.00" departLane="best" departSpeed="max" from="-13373410" to="165776323#3"/>
    <trip id="veh203" type="veh_passenger" depart="631.00" departLane="best" departSpeed="max" from="384143496" to="13381357"/>
    <trip id="veh204" type="veh_passenger" depart="632.00" departLane="best" departSpeed="max" from="-13384799" to="802811755"/>
    <trip id="veh205" type="veh_passenger" depart="633.00" departLane="best" departSpeed="max" from="165884146#0" to="-173876490#0"/>
    <trip id="veh206" type="veh_passenger" depart="634.00" departLane="best" from="-81338439#3" to="-397540645"/>
    <trip id="veh207" type="veh_passenger" depart="635.00" departLane="best" departSpeed="max" from="13324143" to="-168367856"/>
    <trip id="veh208" type="veh_passenger" depart="636.00" departLane="best" from="384140613" to="25377396"/>
    <trip id="veh209" type="veh_passenger" depart="637.00" departLane="best" departSpeed="max" from="-13376345" to="720169817"/>
    <trip id="veh210" type="veh_passenger" depart="638.00" departLane="best" departSpeed="max" from="13452731#0" to="27934796#1"/>
    <trip id="veh211" type="veh_passenger" depart="639.00" departLane="best" departSpeed="max" from="165560819#0" to="-604159985#0"/>
    <trip id="veh212" type="veh_passenger" depart="640.00" departLane="best" departSpeed="max" from="-165774466" to="167920964#7"/>
    <trip id="veh213" type="veh_passenger" depart="641.00" departLane="best" departSpeed="max" from="13352725#0" to="124550370"/>
    <trip id="veh214" type="veh_passenger" depart="642.00" departLane="best" departSpeed="max" from="113411288#0" to="159608031"/>
    <trip id="veh215" type="veh_passenger" depart="643.00" departLane="best" departSpeed="max" from="-165772560#1" to="381230012#1"/>
    <trip id="veh216" type="veh_passenger" depart="644.00" departLane="best" departSpeed="max" from="398253258#0" to="-159762596"/>
    <trip id="veh217" type="veh_passenger" depart="645.00" departLane="best" departSpeed="max" from="13296963#0" to="13384799"/>
    <trip id="veh218" type="veh_passenger" depart="646.00" departLane="best" departSpeed="max" from="-524962751" to="-13300322"/>
    <trip id="veh219" type="veh_passenger" depart="647.00" departLane="best" departSpeed="max" from="384143496" to="-13446430#2"/>
    <trip id="veh221" type="veh_passenger" depart="649.00" departLane="best" departSpeed="max" from="-365598593" to="398233623#1"/>
    <trip id="veh222" type="veh_passenger" depart="650.00" departLane="best" departSpeed="max" from="-13291245#5" to="687409238"/>
    <trip id="veh223" type="veh_passenger" depart="651.00" departLane="best" departSpeed="max" from="-13361072" to="150913662"/>
    <trip id="veh224" type="veh_passenger" depart="652.00" departLane="best" departSpeed="max" from="13311992" to="165568096#7"/>
    <trip id="veh225" type="veh_passenger" depart="653.00" departLane="best" departSpeed="max" from="159608162#0" to="13417403#1"/>
    <trip id="veh226" type="veh_passenger" depart="654.00" departLane="best" departSpeed="max" from="13316682#0" to="165880082"/>
    <trip id="veh228" type="veh_passenger" depart="656.00" departLane="best" departSpeed="max" from="13349026#0" to="-4341242#4"/>
    <trip id="veh230" type="veh_passenger" depart="658.00" departLane="best" departSpeed="max" from="159763305#0" to="-165568131#0"/>
    <trip id="veh231" type="veh_passenger" depart="659.00" departLane="best" departSpeed="max" from="-13454217" to="-13388652#0"/>
    <trip id="veh232" type="veh_passenger" depart="660.00" departLane="best" departSpeed="max" from="13351330" to="165665945#2"/>
    <trip id="veh233" type="veh_passenger" depart="661.00" departLane="best" departSpeed="max" from="742089606" to="13311126#1"/>
    <trip id="veh234" type="veh_passenger" depart="662.00" departLane="best" departSpeed="max" from="-13455837" to="-159064686#0"/>
    <trip id="veh235" type="veh_passenger" depart="663.00" departLane="best" departSpeed="max" from="-13441550" to="-13291249"/>
    <trip id="veh236" type="veh_passenger" depart="664.00" departLane="best" departSpeed="max" from="13351077" to="-165665945#0"/>
    <trip id="veh237" type="veh_passenger" depart="665.00" departLane="best" departSpeed="max" from="742089606" to="13333532#4"/>
    <trip id="veh238" type="veh_passenger" depart="666.00" departLane="best" departSpeed="max" from="159759774" to="-13395739#0"/>