<?xml version="1.0" encoding="UTF-8"?>

<!-- generated on Sun Dec 20 18:08:00 2020 by Eclipse SUMO duarouter Version 1.8.0
<configuration xmlns:xsi="http://www.w3.org/2001/XMLSchema-instance" xsi:noNamespaceSchemaLocation="http://sumo.dlr.de/xsd/duarouterConfiguration.xsd">

    <input>
        <net-file value="osm.net.xml"/>
        <route-files value="osm.busIntervened.trips.xml"/>
    </input>

    <output>
        <output-file value="osm.busIntervened.trips.xml.tmp"/>
        <write-trips value="true"/>
    </output>

    <time>
        <begin value="0"/>
        <end value="10800"/>
    </time>

    <report>
        <no-warnings value="true"/>
        <ignore-errors value="true"/>
        <no-step-log value="true"/>
    </report>

</configuration>
-->

<routes xmlns:xsi="http://www.w3.org/2001/XMLSchema-instance" xsi:noNamespaceSchemaLocation="http://sumo.dlr.de/xsd/routes_file.xsd">
    <vType id="bus_bus" vClass="bus"/>
    <trip id="bus0" type="bus_bus" depart="0.00" departLane="best" from="149003102#13" to="-13300309#2"/>
    <trip id="bus1" type="bus_bus" depart="8.50" departLane="best" from="-165880112#1" to="-165560828#4"/>
    <trip id="bus2" type="bus_bus" depart="17.00" departLane="best" from="37684096#3" to="-13281948#1"/>
    <trip id="bus3" type="bus_bus" depart="25.50" departLane="best" from="354959495#1" to="165560828#5"/>
    <trip id="bus4" type="bus_bus" depart="34.00" departLane="best" departSpeed="max" from="165568131#0" to="-13324034#1"/>
    <trip id="bus5" type="bus_bus" depart="42.50" departLane="best" departSpeed="max" from="-13370598#4" to="-165568113#10"/>
    <trip id="bus6" type="bus_bus" depart="51.00" departLane="best" from="-13394275#2" to="-165880074#6"/>
    <trip id="bus7" type="bus_bus" depart="59.50" departLane="best" departSpeed="max" from="148455912#0" to="-398361687"/>
    <trip id="bus8" type="bus_bus" depart="68.00" departLane="best" departSpeed="max" from="-165838930" to="524778174"/>
    <trip id="bus9" type="bus_bus" depart="76.50" departLane="best" from="150945296#0" to="13446430#14"/>
    <trip id="bus10" type="bus_bus" depart="85.00" departLane="best" from="-13470894#5" to="-398417149#1"/>
    <trip id="bus11" type="bus_bus" depart="93.50" departLane="best" from="81307782#5" to="148356757"/>
    <trip id="bus12" type="bus_bus" depart="102.00" departLane="best" departSpeed="max" from="-165568096#7" to="-13310952#5"/>
    <trip id="bus13" type="bus_bus" depart="110.50" departLane="best" from="398364662" to="-288116300#2"/>
    <trip id="bus14" type="bus_bus" depart="119.00" departLane="best" from="-165792352#1" to="-165772564#3"/>
    <trip id="bus16" type="bus_bus" depart="136.00" departLane="best" from="-13407601#3" to="-623553697#0"/>
    <trip id="bus17" type="bus_bus" depart="144.50" departLane="best" departSpeed="max" from="13321499#0" to="-149009294#3"/>
    <trip id="bus18" type="bus_bus" depart="153.00" departLane="best" from="404954661#1" to="398361680"/>
    <trip id="bus19" type="bus_bus" depart="161.50" departLane="best" from="-185735929#5" to="148356701"/>
    <trip id="bus20" type="bus_bus" depart="170.00" departLane="best" from="13454318#4" to="-13458349#5"/>
    <trip id="bus21" type="bus_bus" depart="178.50" departLane="best" from="398364719" to="606824621#2"/>
    <trip id="bus22" type="bus_bus" depart="187.00" departLane="best" from="-165792360" to="398361716"/>
    <trip id="bus23" type="bus_bus" depart="195.50" departLane="best" from="-643327597#1" to="-159762584#5"/>
    <trip id="bus24" type="bus_bus" depart="204.00" departLane="best" departSpeed="max" from="859649355" to="150913651#10"/>
    <trip id="bus25" type="bus_bus" depart="212.50" departLane="best" from="-13419364#5" to="-165560855#4"/>
    <trip id="bus26" type="bus_bus" depart="221.00" departLane="best" from="-159117468#5" to="-742821929"/>
    <trip id="bus27" type="bus_bus" depart="229.50" departLane="best" from="-759240591#4" to="398231658#0"/>
    <trip id="bus28" type="bus_bus" depart="238.00" departLane="best" departSpeed="max" from="13382998#0" to="-13327158#0"/>
    <trip id="bus29" type="bus_bus" depart="246.50" departLane="best" from="-509312791#4" to="-13335821"/>
    <trip id="bus30" type="bus_bus" depart="255.00" departLane="best" from="607284021#9" to="859343581"/>
    <trip id="bus31" type="bus_bus" depart="263.50" departLane="best" from="-13461424#2" to="-167920394#0"/>
    <trip id="bus32" type="bus_bus" depart="272.00" departLane="best" from="651573513#7" to="13408637#2"/>
    <trip id="bus34" type="bus_bus" depart="289.00" departLane="best" from="13439859#2" to="159608045#0"/>
    <trip id="bus35" type="bus_bus" depart="297.50" departLane="best" from="-165665930#2" to="-13419364#5"/>
    <trip id="bus36" type="bus_bus" depart="306.00" departLane="best" departSpeed="max" from="13349026#0" to="518268777#6"/>
    <trip id="bus37" type="bus_bus" depart="314.50" departLane="best" departSpeed="max" from="-159608169" to="165665954#0"/>
    <trip id="bus38" type="bus_bus" depart="323.00" departLane="best" from="-165665947#1" to="-404954658"/>
    <trip id="bus39" type="bus_bus" depart="331.50" departLane="best" from="159064686#2" to="-13282555#9"/>
    <trip id="bus40" type="bus_bus" depart="340.00" departLane="best" from="148356742" to="-165784235#10"/>
    <trip id="bus41" type="bus_bus" depart="348.50" departLane="best" from="398000202" to="-13382998#0"/>
    <trip id="bus42" type="bus_bus" depart="357.00" departLane="best" from="-668298719#0" to="-13287930#2"/>
    <trip id="bus44" type="bus_bus" depart="374.00" departLane="best" from="384281580#1" to="134117953#3"/>
    <trip id="bus45" type="bus_bus" depart="382.50" departLane="best" from="398235785" to="724343160#0"/>
    <trip id="bus46" type="bus_bus" depart="391.00" departLane="best" from="37689821#2" to="398382777"/>
    <trip id="bus47" type="bus_bus" depart="399.50" departLane="best" from="335860231#2" to="398235780#1"/>
    <trip id="bus48" type="bus_bus" depart="408.00" departLane="best" from="-13299226#1" to="-159605407#12"/>
    <trip id="bus49" type="bus_bus" depart="416.50" departLane="best" from="645214159#0" to="-165880079"/>
    <trip id="bus50" type="bus_bus" depart="425.00" departLane="best" departSpeed="max" from="609633811#0" to="-165785347#0"/>
    <trip id="bus51" type="bus_bus" depart="433.50" departLane="best" departSpeed="max" from="13451157#0" to="13327134"/>
    <trip id="bus52" type="bus_bus" depart="442.00" departLane="best" departSpeed="max" from="518126704#0" to="159608165#1"/>
    <trip id="bus53" type="bus_bus" depart="450.50" departLane="best" from="398754269#0" to="13453040#6"/>
    <trip id="bus54" type="bus_bus" depart="459.00" departLane="best" from="295757630#8" to="-136914687#5"/>
    <trip id="bus55" type="bus_bus" depart="467.50" departLane="best" departSpeed="max" from="-13376355#6" to="13330595#2"/>
    <trip id="bus56" type="bus_bus" depart="476.00" departLane="best" from="-165772572" to="13289071#2"/>
    <trip id="bus57" type="bus_bus" depart="484.50" departLane="best" from="398023723#2" to="-13362617#0"/>
    <trip id="bus58" type="bus_bus" depart="493.00" departLane="best" departSpeed="max" from="-606824621#2" to="13470891#1"/>
    <trip id="bus59" type="bus_bus" depart="501.50" departLane="best" from="159156079" to="-13281330#2"/>
    <trip id="bus60" type="bus_bus" depart="510.00" departLane="best" departSpeed="max" from="-165776321#2" to="398021056#1"/>
    <trip id="bus61" type="bus_bus" depart="518.50" departLane="best" from="121936154" to="338171896#4"/>
    <trip id="bus62" type="bus_bus" depart="527.00" departLane="best" from="159608045#0" to="802811755"/>
    <trip id="bus63" type="bus_bus" depart="535.50" departLane="best" from="13439995#0" to="607284021#4"/>
    <trip id="bus64" type="bus_bus" depart="544.00" departLane="best" departSpeed="max" from="-165774473" to="148215662"/>
    <trip id="bus65" type="bus_bus" depart="552.50" departLane="best" from="136732123#10" to="-165828688#0"/>
    <trip id="bus66" type="bus_bus" depart="561.00" departLane="best" from="-165568113#9" to="159764526#2"/>
    <trip id="bus67" type="bus_bus" depart="569.50" departLane="best" from="-607540321#0" to="398785876"/>
    <trip id="bus68" type="bus_bus" depart="578.00" departLane="best" from="13427781#10" to="160556138#0"/>
    <trip id="bus69" type="bus_bus" depart="586.50" departLane="best" from="-398778791#1" to="-13281597#2"/>
    <trip id="bus70" type="bus_bus" depart="595.00" departLane="best" from="-607540312#4" to="165880082"/>
    <trip id="bus71" type="bus_bus" depart="603.50" departLane="best" from="165884170#7" to="-398414286"/>
    <trip id="bus72" type="bus_bus" depart="612.00" departLane="best" from="165880078#2" to="-134117950#2"/>
    <trip id="bus74" type="bus_bus" depart="629.00" departLane="best" from="-13419364#6" to="768081251"/>
    <trip id="bus75" type="bus_bus" depart="637.50" departLane="best" departSpeed="max" from="-13397598#3" to="664051389#18"/>
    <trip id="bus76" type="bus_bus" depart="646.00" departLane="best" from="-398775783#0" to="-13307839#0"/>
    <trip id="bus77" type="bus_bus" depart="654.50" departLane="best" from="-398007955#2" to="398382769#0"/>
    <trip id="bus78" type="bus_bus" depart="663.00" departLane="best" departSpeed="max" from="165568113#0" to="-165880068#0"/>
    <trip id="bus79" type="bus_bus" depart="671.50" departLane="best" departSpeed="max" from="-13289071#2" to="607179440#4"/>
    <trip id="bus80" type="bus_bus" depart="680.00" departLane="best" departSpeed="max" from="-13376660#12" to="165772575"/>
    <trip id="bus81" type="bus_bus" depart="688.50" departLane="best" from="165560824#6" to="149003102#7"/>
    <trip id="bus82" type="bus_bus" depart="697.00" departLane="best" departSpeed="max" from="13311377#0" to="295756012#1"/>
    <trip id="bus83" type="bus_bus" depart="705.50" departLane="best" from="165560828#3" to="-208959927#2"/>
    <trip id="bus84" type="bus_bus" depart="714.00" departLane="best" departSpeed="max" from="13423783#0" to="13285380#3"/>
    <trip id="bus85" type="bus_bus" depart="722.50" departLane="best" from="13362617#6" to="-604363329#0"/>
    <trip id="bus86" type="bus_bus" depart="731.00" departLane="best" from="-159606583#0" to="-165568068#7"/>
    <trip id="bus87" type="bus_bus" depart="739.50" departLane="best" departSpeed="max" from="-150913648" to="-13292658#0"/>
    <trip id="bus88" type="bus_bus" depart="748.00" departLane="best" from="13365731#3" to="-165828688#0"/>
    <trip id="bus89" type="bus_bus" depart="756.50" departLane="best" from="13290818#3" to="-665212184#17"/>
    <trip id="bus90" type="bus_bus" depart="765.00" departLane="best" from="518127185" to="13292909"/>
    <trip id="bus91" type="bus_bus" depart="773.50" departLane="best" from="-13334079#2" to="-13453425#0"/>
    <trip id="bus92" type="bus_bus" depart="782.00" departLane="best" from="838981511" to="-13418669#2"/>
    <trip id="bus93" type="bus_bus" depart="790.50" departLane="best" from="167009682#2" to="13441550"/>
    <trip id="bus94" type="bus_bus" depart="799.00" departLane="best" from="-759240585#0" to="398231610#0"/>
    <trip id="bus95" type="bus_bus" depart="807.50" departLane="best" from="814267423#2" to="-191297052#2"/>
    <trip id="bus97" type="bus_bus" depart="824.50" departLane="best" from="165791832#6" to="607179436"/>
    <trip id="bus98" type="bus_bus" depart="833.00" departLane="best" from="165568127#2" to="-81307782#2"/>
    <trip id="bus99" type="bus_bus" depart="841.50" departLane="best" from="160505043#1" to="456927939#3"/>
    <trip id="bus100" type="bus_bus" depart="850.00" departLane="best" from="159606594#2" to="518126704#4"/>
    <trip id="bus101" type="bus_bus" depart="858.50" departLane="best" from="-664051389#1" to="13370598#1"/>
    <trip id="bus102" type="bus_bus" depart="867.00" departLane="best" from="384161571#1" to="-13361642#0"/>
    <trip id="bus103" type="bus_bus" depart="875.50" departLane="best" departSpeed="max" from="-13321148#5" to="-607540315#0"/>
    <trip id="bus104" type="bus_bus" depart="884.00" departLane="best" departSpeed="max" from="13291249" to="150913658#5"/>
    <trip id="bus105" type="bus_bus" depart="892.50" departLane="best" from="-398231529#2" to="-384143499#0"/>
    <trip id="bus106" type="bus_bus" depart="901.00" departLane="best" departSpeed="max" from="797875284#0" to="150945319#1"/>
    <trip id="bus107" type="bus_bus" depart="909.50" departLane="best" from="-150945323#3" to="-398241777#0"/>
    <trip id="bus108" type="bus_bus" depart="918.00" departLane="best" departSpeed="max" from="-720169817" to="165560828#7"/>
    <trip id="bus109" type="bus_bus" depart="926.50" departLane="best" from="13385223#9" to="-13384707#0"/>
    <trip id="bus110" type="bus_bus" depart="935.00" departLane="best" departSpeed="max" from="829717237#0" to="404956293"/>
    <trip id="bus111" type="bus_bus" depart="943.50" departLane="best" from="165772578" to="13324980#1"/>
    <trip id="bus113" type="bus_bus" depart="960.50" departLane="best" from="-606824622#2" to="518209359"/>
    <trip id="bus114" type="bus_bus" depart="969.00" departLane="best" departSpeed="max" from="113411288#0" to="-30656331#4"/>
    <trip id="bus115" type="bus_bus" depart="977.50" departLane="best" from="-158712302#3" to="165560824#9"/>
    <trip id="bus116" type="bus_bus" depart="986.00" departLane="best" departSpeed="max" from="13410859" to="-165568122#0"/>
    <trip id="bus117" type="bus_bus" depart="994.50" departLane="best" from="181489047#0" to="-13321499#10"/>
    <trip id="bus118" type="bus_bus" depart="1003.00" departLane="best" from="165838936#0" to="165568104#1"/>
    <trip id="bus119" type="bus_bus" depart="1011.50" departLane="best" departSpeed="max" from="13352725#0" to="-829717237#1"/>
    <trip id="bus120" type="bus_bus" depart="1020.00" departLane="best" from="13291139" to="689959152"/>
    <trip id="bus121" type="bus_bus" depart="1028.50" departLane="best" from="398043610" to="398231557#1"/>
    <trip id="bus122" type="bus_bus" depart="1037.00" departLane="best" from="-398775796#1" to="-295757629#12"/>
    <trip id="bus123" type="bus_bus" depart="1045.50" departLane="best" from="-13361517#1" to="13471372#2"/>
    <trip id="bus124" type="bus_bus" depart="1054.00" departLane="best" from="-13392254#4" to="136914687#3"/>
    <trip id="bus125" type="bus_bus" depart="1062.50" departLane="best" from="398361686" to="-691335254"/>
    <trip id="bus126" type="bus_bus" depart="1071.00" departLane="best" from="165568050#11" to="398778788#0"/>
    <trip id="bus127" type="bus_bus" depart="1079.50" departLane="best" from="-13449902#0" to="13354640"/>
    <trip id="bus128" type="bus_bus" depart="1088.00" departLane="best" from="-165665952#8" to="404956283"/>
    <trip id="bus129" type="bus_bus" depart="1096.50" departLane="best" from="-13447658#2" to="-879314603#0"/>
    <trip id="bus130" type="bus_bus" depart="1105.00" departLane="best" departSpeed="max" from="-398164477#1" to="13419362#1"/>
    <trip id="bus131" type="bus_bus" depart="1113.50" departLane="best" departSpeed="max" from="13410859" to="13405772#1"/>
    <trip id="bus132" type="bus_bus" depart="1122.00" departLane="best" from="13362617#5" to="404964733"/>
    <trip id="bus133" type="bus_bus" depart="1130.50" departLane="best" from="609633811#7" to="-13444904#0"/>
    <trip id="bus134" type="bus_bus" depart="1139.00" departLane="best" departSpeed="max" from="159608581#0" to="13417815"/>
    <trip id="bus135" type="bus_bus" depart="1147.50" departLane="best" from="-13405989#2" to="-165568127#0"/>
    <trip id="bus136" type="bus_bus" depart="1156.00" departLane="best" from="-165560824#1" to="-13345039#0"/>
    <trip id="bus137" type="bus_bus" depart="1164.50" departLane="best" from="-237019988#1" to="-4341242#0"/>
    <trip id="bus138" type="bus_bus" depart="1173.00" departLane="best" departSpeed="max" from="55336160#0" to="-524970165#5"/>
    <trip id="bus139" type="bus_bus" depart="1181.50" departLane="best" from="604159980" to="-13311124"/>
    <trip id="bus140" type="bus_bus" depart="1190.00" departLane="best" from="-398547793" to="-691335254"/>
    <trip id="bus142" type="bus_bus" depart="1207.00" departLane="best" from="-398362517#1" to="-404954697"/>
    <trip id="bus143" type="bus_bus" depart="1215.50" departLane="best" from="-159081725#7" to="-13422391#5"/>
    <trip id="bus144" type="bus_bus" depart="1224.00" departLane="best" from="263557933#0" to="-165665952#5"/>
    <trip id="bus145" type="bus_bus" depart="1232.50" departLane="best" from="-13451447#1" to="398754268#5"/>
    <trip id="bus146" type="bus_bus" depart="1241.00" departLane="best" departSpeed="max" from="-13293872#1" to="27165257"/>
    <trip id="bus147" type="bus_bus" depart="1249.50" departLane="best" departSpeed="max" from="-13406002" to="13318502#2"/>
    <trip id="bus148" type="bus_bus" depart="1258.00" departLane="best" departSpeed="max" from="13362617#0" to="-81307782#0"/>
    <trip id="bus149" type="bus_bus" depart="1266.50" departLane="best" from="-397996293#0" to="-799521926"/>
    <trip id="bus150" type="bus_bus" depart="1275.00" departLane="best" from="-607194248#0" to="-13388651#2"/>
    <trip id="bus152" type="bus_bus" depart="1292.00" departLane="best" from="-384160624#4" to="-13422391#6"/>
    <trip id="bus153" type="bus_bus" depart="1300.50" departLane="best" departSpeed="max" from="165774481" to="688003602#3"/>
    <trip id="bus154" type="bus_bus" depart="1309.00" departLane="best" from="-13405772#1" to="398000203#1"/>
    <trip id="bus155" type="bus_bus" depart="1317.50" departLane="best" departSpeed="max" from="13415156#0" to="371807504#5"/>
    <trip id="bus156" type="bus_bus" depart="1326.00" departLane="best" from="397996276" to="723752712#1"/>
    <trip id="bus157" type="bus_bus" depart="1334.50" departLane="best" from="-673269352#1" to="-165880116#6"/>
    <trip id="bus158" type="bus_bus" depart="1343.00" departLane="best" from="-159759780#1" to="-13441117#0"/>
    <trip id="bus159" type="bus_bus" depart="1351.50" departLane="best" departSpeed="max" from="-13284710#12" to="165880080#4"/>
    <trip id="bus160" type="bus_bus" depart="1360.00" departLane="best" from="405294849" to="398231683"/>
    <trip id="bus161" type="bus_bus" depart="1368.50" departLane="best" departSpeed="max" from="-13411114" to="-13296963#0"/>
    <trip id="bus162" type="bus_bus" depart="1377.00" departLane="best" from="397994429#0" to="-165665952#10"/>
    <trip id="bus163" type="bus_bus" depart="1385.50" departLane="best" from="176216080" to="13310661#1"/>
    <trip id="bus164" type="bus_bus" depart="1394.00" departLane="best" departSpeed="max" from="13405759#0" to="136914689#6"/>
    <trip id="bus165" type="bus_bus" depart="1402.50" departLane="best" from="136732123#6" to="-13458254"/>
    <trip id="bus166" type="bus_bus" depart="1411.00" departLane="best" from="-295757629#7" to="-783237790#1"/>
    <trip id="bus167" type="bus_bus" depart="1419.50" departLane="best" from="37686052#3" to="150913658#8"/>
    <trip id="bus168" type="bus_bus" depart="1428.00" departLane="best" from="-37683969#6" to="13290044"/>
    <trip id="bus169" type="bus_bus" depart="1436.50" departLane="best" from="398783440#0" to="398362513#0"/>
    <trip id="bus170" type="bus_bus" depart="1445.00" departLane="best" from="150913663#0" to="-604115983#6"/>
    <trip id="bus171" type="bus_bus" depart="1453.50" departLane="best" from="-398364729#3" to="-398251732#1"/>
    <trip id="bus172" type="bus_bus" depart="1462.00" departLane="best" departSpeed="max" from="-165568064#7" to="-13441117#0"/>
    <trip id="bus174" type="bus_bus" depart="1479.00" departLane="best" from="37683969#2" to="13280907#3"/>
    <trip id="bus175" type="bus_bus" depart="1487.50" departLane="best" departSpeed="max" from="13280428#0" to="-165880105#0"/>
    <trip id="bus176" type="bus_bus" depart="1496.00" departLane="best" from="319505918#1" to="-13442991#0"/>
    <trip id="bus177" type="bus_bus" depart="1504.50" departLane="best" departSpeed="max" from="-165776323#3" to="148455912#1"/>
    <trip id="bus178" type="bus_bus" depart="1513.00" departLane="best" from="398361715#2" to="13381603#3"/>
    <trip id="bus179" type="bus_bus" depart="1521.50" departLane="best" from="398775801#0" to="-13451157#0"/>
    <trip id="bus180" type="bus_bus" depart="1530.00" departLane="best" from="-398231610#0" to="-13303520"/>
    <trip id="bus181" type="bus_bus" depart="1538.50" departLane="best" from="-13441117#1" to="165568105#5"/>
    <trip id="bus182" type="bus_bus" depart="1547.00" departLane="best" from="124425029#0" to="-13408628#5"/>
    <trip id="bus183" type="bus_bus" depart="1555.50" departLane="best" departSpeed="max" from="694625943#0" to="-13351191#1"/>
    <trip id="bus184" type="bus_bus" depart="1564.00" departLane="best" departSpeed="max" from="797876019#0" to="13381357"/>
    <trip id="bus185" type="bus_bus" depart="1572.50" departLane="best" from="271395566#0" to="-397987913#0"/>
    <trip id="bus186" type="bus_bus" depart="1581.00" departLane="best" departSpeed="max" from="124550393" to="-165884183#0"/>
    <trip id="bus187" type="bus_bus" depart="1589.50" departLane="best" from="-13324034#0" to="518117993"/>
    <trip id="bus188" type="bus_bus" depart="1598.00" departLane="best" departSpeed="max" from="13376351#0" to="-165774483#4"/>
    <trip id="bus189" type="bus_bus" depart="1606.50" departLane="best" from="-398361703" to="232934284"/>
    <trip id="bus190" type="bus_bus" depart="1615.00" departLane="best" from="398239888" to="-384017395#2"/>
    <trip id="bus191" type="bus_bus" depart="1623.50" departLane="best" departSpeed="max" from="13318502#0" to="456933545#0"/>
    <trip id="bus192" type="bus_bus" depart="1632.00" departLane="best" from="-13370861#4" to="159081725#20"/>
    <trip id="bus193" type="bus_bus" depart="1640.50" departLane="best" from="-398231683" to="-13321144#6"/>
    <trip id="bus194" type="bus_bus" depart="1649.00" departLane="best" from="-457157033" to="150913648"/>
    <trip id="bus195" type="bus_bus" depart="1657.50" departLane="best" departSpeed="max" from="165790320" to="13312212"/>
    <trip id="bus196" type="bus_bus" depart="1666.00" departLane="best" from="-398231511" to="-13349023#0"/>
    <trip id="bus197" type="bus_bus" depart="1674.50" departLane="best" departSpeed="max" from="295757629#0" to="13324913"/>
    <trip id="bus198" type="bus_bus" depart="1683.00" departLane="best" from="-398055334" to="398375581#4"/>
    <trip id="bus199" type="bus_bus" depart="1691.50" departLane="best" departSpeed="max" from="-150913660" to="678374265"/>
    <trip id="bus200" type="bus_bus" depart="1700.00" departLane="best" from="-398209500#0" to="57370522#5"/>
    <trip id="bus201" type="bus_bus" depart="1708.50" departLane="best" departSpeed="max" from="-165776325" to="136914689#24"/>
    <trip id="bus202" type="bus_bus" depart="1717.00" departLane="best" from="13383615#0" to="-13427781#7"/>
    <trip id="bus203" type="bus_bus" depart="1725.50" departLane="best" from="150945316#2" to="172314749#0"/>
    <trip id="bus204" type="bus_bus" depart="1734.00" departLane="best" departSpeed="max" from="13318516#0" to="13468296#1"/>
    <trip id="bus206" type="bus_bus" depart="1751.00" departLane="best" from="-159608168#1" to="13442939#0"/>
    <trip id="bus207" type="bus_bus" depart="1759.50" departLane="best" departSpeed="max" from="-365598527" to="129554357#3"/>
    <trip id="bus208" type="bus_bus" depart="1768.00" departLane="best" from="-165838935#0" to="-165772582#2"/>
    <trip id="bus209" type="bus_bus" depart="1776.50" departLane="best" from="-13389761#16" to="-165884146#2"/>
    <trip id="bus210" type="bus_bus" depart="1785.00" departLane="best" from="-13467281#1" to="-37683969#6"/>
    <trip id="bus211" type="bus_bus" depart="1793.50" departLane="best" from="-398235789#1" to="-13327153#1"/>
    <trip id="bus212" type="bus_bus" depart="1802.00" departLane="best" from="-165884133#21" to="81307782#6"/>
    <trip id="bus213" type="bus_bus" depart="1810.50" departLane="best" from="51538547" to="165884105#8"/>
    <trip id="bus214" type="bus_bus" depart="1819.00" departLane="best" departSpeed="max" from="13451157#0" to="13330858#0"/>
    <trip id="bus215" type="bus_bus" depart="1827.50" departLane="best" departSpeed="max" from="237019983" to="185399264#1"/>
    <trip id="bus216" type="bus_bus" depart="1836.00" departLane="best" from="-13295686#14" to="-271395566#0"/>
    <trip id="bus217" type="bus_bus" depart="1844.50" departLane="best" from="-398025232" to="-398231497#3"/>
    <trip id="bus218" type="bus_bus" depart="1853.00" departLane="best" from="-165880106#0" to="-13422391#0"/>
    <trip id="bus219" type="bus_bus" depart="1861.50" departLane="best" from="607179435#0" to="355366002#3"/>
    <trip id="bus220" type="bus_bus" depart="1870.00" departLane="best" from="165665961#6" to="-398000202"/>
    <trip id="bus221" type="bus_bus" depart="1878.50" departLane="best" departSpeed="max" from="13298600" to="-159608167#5"/>
    <trip id="bus222" type="bus_bus" depart="1887.00" departLane="best" from="165568069#1" to="-13441117#0"/>
    <trip id="bus223" type="bus_bus" depart="1895.50" departLane="best" from="-165665961#6" to="159607071"/>
    <trip id="bus224" type="bus_bus" depart="1904.00" departLane="best" from="-13333489#2" to="-509308248#2"/>
    <trip id="bus225" type="bus_bus" depart="1912.50" departLane="best" from="173879099#1" to="-13280907#1"/>
    <trip id="bus226" type="bus_bus" depart="1921.00" departLane="best" departSpeed="max" from="13382998#0" to="49313545#0"/>
    <trip id="bus227" type="bus_bus" depart="1929.50" departLane="best" from="398364729#2" to="13291625#1"/>
    <trip id="bus228" type="bus_bus" depart="1938.00" departLane="best" departSpeed="max" from="13415156#0" to="13363277#3"/>
    <trip id="bus229" type="bus_bus" depart="1946.50" departLane="best" from="404954667" to="-148747110#6"/>
    <trip id="bus230" type="bus_bus" depart="1955.00" departLane="best" departSpeed="max" from="4341232#0" to="398364729#3"/>
    <trip id="bus231" type="bus_bus" depart="1963.50" departLane="best" from="-13403438" to="765273748"/>
    <trip id="bus232" type="bus_bus" depart="1972.00" departLane="best" departSpeed="max" from="-165884175" to="81307782#6"/>
    <trip id="bus233" type="bus_bus" depart="1980.50" departLane="best" departSpeed="max" from="165560843#0" to="-13341465#4"/>
    <trip id="bus234" type="bus_bus" depart="1989.00" departLane="best" departSpeed="max" from="-524962751" to="13317983#0"/>
    <trip id="bus235" type="bus_bus" depart="1997.50" departLane="best" from="398591356#9" to="165568085#0"/>
    <trip id="bus236" type="bus_bus" depart="2006.00" departLane="best" from="404956245" to="-167009682#0"/>
    <trip id="bus237" type="bus_bus" depart="2014.50" departLane="best" from="165880078#1" to="13440951#3"/>
    <trip id="bus238" type="bus_bus" depart="2023.00" departLane="best" from="-607179441#3" to="13376345"/>
    <trip id="bus239" type="bus_bus" depart="2031.50" departLane="best" departSpeed="max" from="13291625#0" to="13365362#5"/>
    <trip id="bus240" type="bus_bus" depart="2040.00" departLane="best" from="-81307782#8" to="165568096#0"/>
    <trip id="bus241" type="bus_bus" depart="2048.50" departLane="best" from="13325562#1" to="13400218#5"/>
    <trip id="bus242" type="bus_bus" depart="2057.00" departLane="best" departSpeed="max" from="-13454217" to="-37685945#1"/>
    <trip id="bus243" type="bus_bus" depart="2065.50" departLane="best" departSpeed="max" from="-159608219#3" to="13412718#3"/>
    <trip id="bus244" type="bus_bus" depart="2074.00" departLane="best" from="-13344579#4" to="113411288#7"/>
    <trip id="bus245" type="bus_bus" depart="2082.50" departLane="best" from="-4341218#9" to="384136409#2"/>
    <trip id="bus246" type="bus_bus" depart="2091.00" departLane="best" departSpeed="max" from="48168879#0" to="-13310947#1"/>
    <trip id="bus247" type="bus_bus" depart="2099.50" departLane="best" from="167920393#1" to="742710675"/>
    <trip id="bus248" type="bus_bus" depart="2108.00" departLane="best" from="398259441#0" to="402665250#12"/>
    <trip id="bus249" type="bus_bus" depart="2116.50" departLane="best" from="-165560828#4" to="-13278912#0"/>
    <trip id="bus250" type="bus_bus" depart="2125.00" departLane="best" from="159608582#3" to="13370594"/>
    <trip id="bus251" type="bus_bus" depart="2133.50" departLane="best" from="13364432#5" to="384149481#0"/>
    <trip id="bus252" type="bus_bus" depart="2142.00" departLane="best" departSpeed="max" from="167920394#0" to="398387399"/>
    <trip id="bus253" type="bus_bus" depart="2150.50" departLane="best" from="-13342156#1" to="13318502#2"/>
    <trip id="bus254" type="bus_bus" depart="2159.00" departLane="best" from="-13349026#6" to="607194248#0"/>
    <trip id="bus255" type="bus_bus" depart="2167.50" departLane="best" from="398379077" to="404956205"/>
    <trip id="bus256" type="bus_bus" depart="2176.00" departLane="best" from="518268777#12" to="159608016#2"/>
    <trip id="bus257" type="bus_bus" depart="2184.50" departLane="best" from="261564548" to="-295757630#4"/>
    <trip id="bus258" type="bus_bus" depart="2193.00" departLane="best" departSpeed="max" from="-607194248#3" to="-13453425#0"/>
    <trip id="bus259" type="bus_bus" depart="2201.50" departLane="best" from="13294401#0" to="398023728#0"/>
    <trip id="bus260" type="bus_bus" depart="2210.00" departLane="best" from="13400218#3" to="687409238"/>
    <trip id="bus261" type="bus_bus" depart="2218.50" departLane="best" from="398007545" to="-13382998#0"/>
    <trip id="bus262" type="bus_bus" depart="2227.00" departLane="best" from="-150945326#7" to="165884183#0"/>
    <trip id="bus263" type="bus_bus" depart="2235.50" departLane="best" from="-384278926" to="631737212#2"/>
    <trip id="bus264" type="bus_bus" depart="2244.00" departLane="best" from="-165665961#9" to="13438582#6"/>