<?xml version="1.0" encoding="UTF-8"?>

<!-- generated on Sun Dec 20 13:39:41 2020 by Eclipse SUMO netconvert Version 1.8.0
<configuration xmlns:xsi="http://www.w3.org/2001/XMLSchema-instance" xsi:noNamespaceSchemaLocation="http://sumo.dlr.de/xsd/netconvertConfiguration.xsd">

    <input>
        <type-files value="/usr/local/opt/sumo/share/sumo/data/typemap/osmNetconvert.typ.xml"/>
        <osm-files value="osm_bbox.osm.xml"/>
    </input>

    <output>
        <output-file value="osm.net.xml"/>
        <output.street-names value="true"/>
        <output.original-names value="true"/>
        <ptstop-output value="osm_stops.add.xml"/>
        <ptline-output value="osm_ptlines.xml"/>
    </output>

    <projection>
        <proj.utm value="true"/>
    </projection>

    <processing>
        <geometry.remove value="true"/>
        <roundabouts.guess value="true"/>
    </processing>

    <tls_building>
        <tls.discard-simple value="true"/>
        <tls.join value="true"/>
        <tls.guess-signals value="true"/>
        <tls.default-type value="actuated"/>
    </tls_building>

    <ramp_guessing>
        <ramps.guess value="true"/>
    </ramp_guessing>

    <junctions>
        <junctions.join value="true"/>
        <junctions.corner-detail value="5"/>
    </junctions>

    <railway>
        <railway.topology.repair value="true"/>
        <railway.topology.repair.stop-turn value="true"/>
    </railway>

    <report>
        <verbose value="true"/>
        <aggregate-warnings value="5"/>
    </report>

</configuration>
-->

<additional xmlns:xsi="http://www.w3.org/2001/XMLSchema-instance" xsi:noNamespaceSchemaLocation="http://sumo.dlr.de/xsd/additional_file.xsd">
    <busStop id="-1419803117" name="Palms &amp; Exposition (Palms Station)" lane="-150913661#0_0" startPos="0.00" endPos="10.07" friendlyPos="true" lines="17"/>
    <busStop id="-1419803127" name="Westwood &amp; National" lane="-398778788#0_0" startPos="2.14" endPos="17.14" friendlyPos="true" lines="Rapid 12 8 3"/>
    <busStop id="-1419803130" name="National &amp; Overland" lane="-404964734#0_0" startPos="28.66" endPos="39.63" friendlyPos="true" lines="3"/>
    <busStop id="-1419803131" name="Palms &amp; Jasmine" lane="-398579023_0" startPos="13.01" endPos="20.95" friendlyPos="true" lines="17"/>
    <busStop id="-1419803137" name="Palms &amp; Motor" lane="-398579026#0_0" startPos="6.61" endPos="21.61" friendlyPos="true" lines="17"/>
    <busStop id="-3946400402" name="Motor &amp; Regent" lane="-150913651#17_0" startPos="212.36" endPos="222.99" friendlyPos="true" lines="3"/>
    <busStop id="-3960923707" name="Motor &amp; Washington" lane="-167923730#3_0" startPos="17.07" endPos="32.07" friendlyPos="true" lines="3"/>
    <busStop id="-3960923719" name="Motor &amp; Venice" lane="-150913651#19_0" startPos="0.57" endPos="15.57" friendlyPos="true" lines="3"/>
    <busStop id="-3960923736" name="Motor &amp; Tabor" lane="-150913651#13_0" startPos="135.55" endPos="150.47" friendlyPos="true" lines="3"/>
    <busStop id="-3960923737" name="Motor &amp; Palms" lane="-150913651#10_0" startPos="141.06" endPos="156.06" friendlyPos="true" lines="3"/>
    <busStop id="-3960923747" name="Motor &amp; Woodbine" lane="-150913651#4_0" startPos="11.84" endPos="26.84" friendlyPos="true" lines="3"/>
    <busStop id="-3960933181" name="National &amp; Motor" lane="-881824222#0_0" startPos="0.00" endPos="13.72" friendlyPos="true" lines="3"/>
    <busStop id="-3961825566" name="Palms &amp; Overland" lane="-398579028#1_0" startPos="9.70" endPos="24.70" friendlyPos="true" lines="17"/>
    <busStop id="-4075193950" name="Sepulveda &amp; Washington Pl." lane="-397975349#0_0" startPos="8.61" endPos="23.61" friendlyPos="true" lines="6"/>
    <busStop id="-4075193952" name="Sepulveda &amp; Washington Blvd." lane="-397977053#4_0" startPos="9.26" endPos="24.26" friendlyPos="true" lines="6 Rapid 6"/>
    <busStop id="-4075193953" name="Washington &amp; Sepulveda" lane="-398000201#1_0" startPos="39.66" endPos="54.66" friendlyPos="true" lines="1"/>
    <busStop id="-4075193956" name="Sepulveda &amp; Sawtelle" lane="-398030561_0" startPos="35.90" endPos="50.90" friendlyPos="true" lines="4 3 6 Rapid 6"/>
    <busStop id="-5001836121" name="Overland &amp; National Place" lane="-398783439#2_0" startPos="18.34" endPos="33.34" friendlyPos="true" lines="Rapid 12"/>
    <busStop id="-5438732535" name="Sepulveda &amp; Exposition" lane="-404988214#3_0" startPos="27.93" endPos="42.93" friendlyPos="true" lines="6 Rapid 6"/>
    <busStop id="-6278468517" name="Martin Luther King Jr/Degnan" lane="-398239900_0" startPos="10.05" endPos="25.05" friendlyPos="true" lines="40 Leimert/Slauson"/>
    <busStop id="-6278468524" name="Crenshaw/Stocker" lane="-398235803#0_0" startPos="0.00" endPos="9.47" friendlyPos="true" lines="40 105 210 740 710 Leimert/Slauson"/>
    <busStop id="-6278468526" name="Crenshaw/43rd St." lane="-398235789#0_0" startPos="0.00" endPos="9.17" friendlyPos="true" lines="40 105 210 Leimert/Slauson"/>
    <busStop id="-7814246324" name="Westwood &amp; Exposition (Westwood Station)" lane="-826085998_0" startPos="0.00" endPos="13.89" friendlyPos="true" lines="Rapid 12 8"/>
    <busStop id="-7814287978" name="Overland &amp; Rose" lane="-398783440#2_0" startPos="17.90" endPos="30.34" friendlyPos="true" lines="Rapid 12"/>
    <busStop id="-7814287979" name="Overland &amp; Palms" lane="-398605037_0" startPos="0.00" endPos="14.64" friendlyPos="true" lines="Rapid 12"/>
    <busStop id="-7814287980" name="Overland &amp; Charnock" lane="-383987420#1_0" startPos="24.49" endPos="38.51" friendlyPos="true" lines="Rapid 12"/>
    <busStop id="-7821903989" name="Washington &amp; Overland" lane="-384176167#0_0" startPos="43.15" endPos="58.15" friendlyPos="true" lines="1 3"/>
    <busStop id="-7821961927" name="Palms &amp; Glendon" lane="-404964739_0" startPos="14.77" endPos="28.06" friendlyPos="true" lines="17"/>
    <busStop id="-7821961929" name="Palms &amp; Kelton" lane="-404964737#1_0" startPos="0.00" endPos="8.79" friendlyPos="true" lines="17"/>
    <busStop id="-7821961931" name="Palms &amp; Sepulveda" lane="-428122812_0" startPos="25.25" endPos="39.53" friendlyPos="true" lines="17"/>
    <busStop id="-7821961932" name="Sawtelle &amp; Palms" lane="-398754261_0" startPos="40.99" endPos="55.99" friendlyPos="true" lines="17"/>
    <busStop id="-7830899742" name="Westwood &amp; Coventry" lane="-404964745#1_0" startPos="25.23" endPos="33.43" friendlyPos="true" lines="8 3"/>
    <busStop id="-7830899743" name="Westwood &amp; Ashby (Westwood Station)" lane="-398414289_0" startPos="20.11" endPos="35.11" friendlyPos="true" lines="3"/>
    <busStop id="-7830899745" name="National &amp; Valparaiso" lane="-150945326#3_0" startPos="6.09" endPos="21.09" friendlyPos="true" lines="3"/>
    <busStop id="-7830975319" name="National &amp; Kelton" lane="-37689821#3_0" startPos="68.52" endPos="83.52" friendlyPos="true" lines="8"/>
    <busStop id="-7830975320" name="National &amp; Military" lane="-398771138#1_0" startPos="0.00" endPos="7.50" friendlyPos="true" lines="8"/>
    <busStop id="-7830975323" name="National &amp; Sepulveda" lane="-398771136#0_0" startPos="18.78" endPos="33.78" friendlyPos="true" lines="8"/>
    <busStop id="-7830975324" name="Sepulveda &amp; National" lane="-398775795#1_0" startPos="34.43" endPos="49.43" friendlyPos="true" lines="6 Rapid 6"/>
    <busStop id="-7830975326" name="Sawtelle &amp; National" lane="-181978103_0" startPos="30.73" endPos="45.73" friendlyPos="true" lines="17"/>
    <busStop id="-7830975329" name="National &amp; Sawtelle" lane="-398770661#2_0" startPos="3.47" endPos="18.47" friendlyPos="true" lines="8"/>
    <busStop id="-7831489190" name="National &amp; Castle Heights" lane="-393132599#6_0" startPos="9.59" endPos="19.28" friendlyPos="true" lines="17"/>
    <busStop id="-7831489192" name="National &amp; Bagley" lane="-393132599#0_0" startPos="68.66" endPos="83.66" friendlyPos="true" lines="17"/>
    <busStop id="-7831489195" name="National &amp; Robertson" lane="-24655523#0_0" startPos="38.91" endPos="47.45" friendlyPos="true" lines="17"/>
    <busStop id="-7831489202" name="Washington &amp; Landmark" lane="-456928137#1_0" startPos="13.87" endPos="28.87" friendlyPos="true" lines="1"/>
    <busStop id="-7831489204" name="Washington &amp; Higuera" lane="-398589935#1_0" startPos="0.00" endPos="10.92" friendlyPos="true" lines="1"/>
    <busStop id="-7833716155" name="Sepulveda &amp; Charnock" lane="-404954667_0" startPos="11.03" endPos="26.03" friendlyPos="true" lines="6"/>
    <busStop id="-7833716156" name="Sepulveda &amp; Palms" lane="-398775798_0" startPos="11.31" endPos="26.31" friendlyPos="true" lines="6 Rapid 6"/>
    <busStop id="-7833716159" name="Sepulveda &amp; Queensland" lane="-398775792_0" startPos="27.69" endPos="42.69" friendlyPos="true" lines="6"/>
    <busStop id="-7833716161" name="Sepulveda &amp; Sardis" lane="-338171896#4_0" startPos="97.47" endPos="112.47" friendlyPos="true" lines="6"/>
    <busStop id="-7833716163" name="Sepulveda &amp; Richland" lane="-759476634#2_0" startPos="54.20" endPos="69.20" friendlyPos="true" lines="6"/>
    <busStop id="-7833865484" name="Sawtelle &amp; Stanwood" lane="-398754264#0_0" startPos="9.83" endPos="24.83" friendlyPos="true" lines="17"/>
    <busStop id="-7833909187" name="Sawtelle &amp; Ivy" lane="-398253258#2_0" startPos="0.00" endPos="10.94" friendlyPos="true" lines="17"/>
    <busStop id="-7836553533" name="Motor &amp; Bannockburn" lane="-288116300#3_0" startPos="72.35" endPos="87.35" friendlyPos="true" lines="5"/>
    <busStop id="-7836553535" name="Motor &amp; Cheviot" lane="-288116300#6_0" startPos="49.16" endPos="64.16" friendlyPos="true" lines="5"/>
    <busStop id="-7838215468" name="Madison &amp; Culver" lane="-394767352#1_0" startPos="43.10" endPos="53.99" friendlyPos="true" lines="5"/>
    <busStop id="-7838215476" name="Overland &amp; Culver" lane="-398052775#4_0" startPos="6.75" endPos="21.75" friendlyPos="true" lines="3"/>
    <busStop id="-7838215478" name="Washington &amp; Motor" lane="-392897624#1_0" startPos="28.80" endPos="36.47" friendlyPos="true" lines="1"/>
    <busStop id="-7838215481" name="Washington &amp; Jasmine" lane="-392897624#6_0" startPos="83.29" endPos="93.59" friendlyPos="true" lines="1"/>
    <busStop id="-7838215482" name="Washington &amp; Clarington" lane="-398601898#0_0" startPos="0.00" endPos="8.25" friendlyPos="true" lines="1"/>
    <busStop id="-7842185656" name="Washington &amp; Culver Center" lane="-511823420#3_0" startPos="34.72" endPos="49.72" friendlyPos="true" lines="1"/>
    <busStop id="-7842185658" name="Washington &amp; Elenda" lane="-384176165#3_0" startPos="27.51" endPos="42.51" friendlyPos="true" lines="1"/>
    <busStop id="-7842185660" name="Washington &amp; Prospect" lane="-384176165#0_0" startPos="41.75" endPos="56.75" friendlyPos="true" lines="1"/>
    <busStop id="-7842185665" name="Sepulveda &amp; Venice" lane="-384002611#4_0" startPos="7.62" endPos="22.62" friendlyPos="true" lines="6 Rapid 6"/>
    <busStop id="-7844034162" name="Culver &amp; Harter" lane="-384001408_0" startPos="219.83" endPos="234.83" friendlyPos="true" lines="7"/>
    <busStop id="-7844034166" name="Sepulveda &amp; Culver" lane="-397979312#0_0" startPos="15.60" endPos="30.60" friendlyPos="true" lines="6"/>
    <busStop id="-7844223314" name="Overland &amp; Braddock" lane="-398052774#0_0" startPos="16.16" endPos="31.16" friendlyPos="true" lines="3"/>
    <busStop id="-7844223317" name="Braddock &amp; Overland" lane="-665212184#13_0" startPos="3.91" endPos="18.91" friendlyPos="true" lines="5"/>
    <busStop id="-7844223318" name="Overland &amp; Franklin" lane="-150911625#8_0" startPos="0.00" endPos="8.56" friendlyPos="true" lines="3"/>
    <busStop id="-7844223320" name="Overland &amp; Virginia" lane="-384145899#2_0" startPos="18.18" endPos="33.18" friendlyPos="true" lines="3"/>
    <busStop id="-7844427518" name="Sepulveda &amp; Braddock" lane="-723808805_0" startPos="9.08" endPos="24.08" friendlyPos="true" lines="6"/>
    <busStop id="-7844427519" name="Braddock &amp; Sepulveda" lane="-867901251#5_0" startPos="23.46" endPos="36.35" friendlyPos="true" lines="5"/>
    <busStop id="-7844427520" name="Sepulveda &amp; Lucerne" lane="-149003093#5_0" startPos="2.93" endPos="17.52" friendlyPos="true" lines="6"/>
    <busStop id="-7844427522" lane="-185735929#4_0" startPos="43.95" endPos="58.95" friendlyPos="true" lines="6"/>
    <busStop id="-7844427525" name="Sepulveda &amp; Janisann" lane="-405301784#0_0" startPos="49.78" endPos="64.78" friendlyPos="true" lines="6"/>
    <busStop id="-7855686325" name="Washington &amp; Sawtelle" lane="-404956253_0" startPos="15.04" endPos="30.04" friendlyPos="true" lines="1"/>
    <busStop id="-7855686328" name="Washington &amp; Berryman" lane="-404956275_0" startPos="0.00" endPos="11.27" friendlyPos="true" lines="1"/>
    <busStop id="-7855686329" name="Washington &amp; East" lane="-398000204_0" startPos="0.00" endPos="7.59" friendlyPos="true" lines="1"/>
    <busStop id="-7855686332" name="Washington &amp; Inglewood" lane="-384161571#1_0" startPos="7.45" endPos="22.45" friendlyPos="true" lines="1 2"/>
    <busStop id="-7855686333" name="Washington &amp; Grand View" lane="-404956197_0" startPos="17.50" endPos="32.50" friendlyPos="true" lines="1 2"/>
    <busStop id="-7855687897" name="Culver &amp; Sawtelle" lane="-398002964#1_0" startPos="0.00" endPos="10.96" friendlyPos="true" lines="7"/>
    <busStop id="-7855687900" name="Culver &amp; Berryman" lane="-159606595#3_0" startPos="105.34" endPos="116.42" friendlyPos="true" lines="7"/>
    <busStop id="-7855687902" name="Culver &amp; Slauson" lane="-159606595#6_0" startPos="27.56" endPos="42.56" friendlyPos="true" lines="7"/>
    <busStop id="-7855687904" name="Culver &amp; Inglewood" lane="-398012303#1_0" startPos="19.52" endPos="32.95" friendlyPos="true" lines="7"/>
    <busStop id="-7855687906" name="Inglewood &amp; Culver" lane="-398009201#1_0" startPos="0.25" endPos="15.25" friendlyPos="true" lines="2 5"/>
    <busStop id="-7855687908" name="Culver &amp; Centinela" lane="-398012295#0_0" startPos="12.80" endPos="27.80" friendlyPos="true" lines="7"/>
    <busStop id="-7855797066" name="Centinela &amp; Venice" lane="-398227132#0_0" startPos="24.88" endPos="39.88" friendlyPos="true" lines="14"/>
    <busStop id="-7855797068" name="Centinela &amp; Barbara" lane="-404954660#4_0" startPos="12.30" endPos="27.30" friendlyPos="true" lines="14"/>
    <busStop id="-7855797071" name="Centinela &amp; Washington Pl." lane="-404954658_0" startPos="18.60" endPos="31.46" friendlyPos="true" lines="14"/>
    <busStop id="-7855797072" name="Centinela &amp; Washington Blvd." lane="-404954655_0" startPos="28.95" endPos="43.95" friendlyPos="true" lines="14"/>
    <busStop id="-7855797074" name="Centinela &amp; Louise" lane="-398025237_0" startPos="11.55" endPos="26.55" friendlyPos="true" lines="14"/>
    <busStop id="-7855797075" name="Centinela &amp; Short" lane="-398025236#1_0" startPos="21.49" endPos="36.49" friendlyPos="true" lines="14"/>
    <busStop id="-7855797078" name="Centinela &amp; Culver" lane="-398023724#0_0" startPos="28.33" endPos="43.33" friendlyPos="true" lines="14"/>
    <busStop id="-7860262461" name="Jefferson &amp; Cota" lane="-384144966_0" startPos="0.00" endPos="7.50" friendlyPos="true" lines="4 3"/>
    <busStop id="-7860262470" name="Jefferson &amp; Leahy" lane="-384166363_0" startPos="11.80" endPos="26.80" friendlyPos="true" lines="4"/>
    <busStop id="-7860262472" name="Jefferson &amp; Duquesne" lane="-384148143#0_0" startPos="14.95" endPos="29.95" friendlyPos="true" lines="4"/>
    <busStop id="-7860262474" name="Obama &amp; Kalsman" lane="-508809120_0" startPos="75.18" endPos="90.18" friendlyPos="true" lines="4 5"/>
    <busStop id="-7862972646" name="Washington &amp; Helms" lane="-384162662#1_0" startPos="5.29" endPos="17.64" friendlyPos="true" lines="1"/>
    <busStop id="-7867436424" name="La Cienega &amp; Obama" lane="-384151476#5_0" startPos="0.00" endPos="11.77" friendlyPos="true" lines="4"/>
    <busStop id="-7867436428" name="La Cienega &amp; Clemson" lane="-398551378_0" startPos="38.69" endPos="53.69" friendlyPos="true" lines="4"/>
    <busStop id="-7867436436" name="Fairfax &amp; Adams" lane="-398552703#0_0" startPos="32.58" endPos="47.58" friendlyPos="true" lines="4"/>
    <busStop id="-7993160138" name="Braddock &amp; Madison" lane="-665212184#0_0" startPos="80.96" endPos="95.96" friendlyPos="true" lines="5"/>
    <busStop id="-7993160140" name="Braddock &amp; Jackson" lane="-665212184#2_0" startPos="79.50" endPos="94.50" friendlyPos="true" lines="5"/>
    <busStop id="-7993160142" name="Braddock &amp; Le Bourget" lane="-665212184#8_0" startPos="65.70" endPos="80.70" friendlyPos="true" lines="5"/>
    <busStop id="-7993160144" name="Braddock &amp; Elenda" lane="-867901251#0_0" startPos="23.22" endPos="38.22" friendlyPos="true" lines="5"/>
    <busStop id="-7993160145" name="Braddock &amp; Huron" lane="-867901251#2_0" startPos="173.07" endPos="188.07" friendlyPos="true" lines="5"/>
    <busStop id="-7993160146" name="Braddock &amp; Harter" lane="-867901251#3_0" startPos="215.86" endPos="230.86" friendlyPos="true" lines="5"/>
    <busStop id="-7993160147" name="Braddock &amp; Huntley" lane="-849068837#0_0" startPos="39.99" endPos="54.57" friendlyPos="true" lines="5"/>
    <busStop id="-7993160148" name="Braddock &amp; Berryman" lane="-639067355#3_0" startPos="16.23" endPos="31.23" friendlyPos="true" lines="5"/>
    <busStop id="-7993160149" name="Braddock &amp; Slauson" lane="-639067355#6_0" startPos="21.51" endPos="36.51" friendlyPos="true" lines="5"/>
    <busStop id="-7993160150" name="Braddock &amp; Marionwood" lane="-159764475#3_0" startPos="53.78" endPos="68.78" friendlyPos="true" lines="5"/>
    <busStop id="-7993160151" name="Braddock &amp; Inglewood" lane="-159764475#8_0" startPos="18.88" endPos="33.88" friendlyPos="true" lines="5"/>
    <busStop id="-7993171359" name="Higuera &amp; Washington" lane="-30656331#6_0" startPos="34.45" endPos="49.45" friendlyPos="true" lines="5"/>
    <busStop id="-7993171362" name="Hayden &amp; Warner" lane="-867901242#1_0" startPos="41.22" endPos="54.36" friendlyPos="true" lines="5"/>
    <busStop id="-7993443498" name="Lenawee &amp; Wrightcrest" lane="-13450282#2_0" startPos="37.86" endPos="52.86" friendlyPos="true" lines="5"/>
    <busStop id="-7993443502" name="Holdrege &amp; Jefferson" lane="-181211548#0_0" startPos="56.66" endPos="71.66" friendlyPos="true" lines="5"/>
    <busStop id="-8001061792" name="Washington &amp; Mildred" lane="-383946358#1_0" startPos="13.50" endPos="28.50" friendlyPos="true" lines="1"/>
    <busStop id="-8002165713" name="Culver &amp; Westlawn" lane="-398013536#2_0" startPos="74.18" endPos="89.18" friendlyPos="true" lines="7"/>
    <busStop id="-8002165714" name="Culver &amp; Braddock" lane="-398012300#0_0" startPos="8.23" endPos="23.23" friendlyPos="true" lines="7"/>
    <busStop id="-8002165715" name="Culver &amp; Braddock" lane="-398013537#7_0" startPos="6.37" endPos="21.37" friendlyPos="true" lines="7"/>
    <busStop id="-8002165716" name="Culver &amp; Marina" lane="-398013535#1_0" startPos="66.91" endPos="75.06" friendlyPos="true" lines="7"/>
    <busStop id="-8002165722" name="Alla &amp; Panama" lane="-165880074#11_0" startPos="0.00" endPos="7.27" friendlyPos="true" lines="7"/>
    <busStop id="-8002165724" name="Alla &amp; Bonaparte" lane="-165880074#5_0" startPos="64.79" endPos="79.79" friendlyPos="true" lines="7"/>
    <busStop id="-8004444763" name="Mindanao &amp; Alla" lane="-403844709_0" startPos="29.15" endPos="44.15" friendlyPos="true" lines="7"/>
    <busStop id="-8004782659" name="Overland &amp; Galvin" lane="-149009279#3_0" startPos="89.27" endPos="104.27" friendlyPos="true" lines="3"/>
    <busStop id="-8004782661" name="Overland &amp; Kelmore" lane="-149009279#0_0" startPos="66.18" endPos="81.18" friendlyPos="true" lines="3"/>
    <busStop id="-8004782664" name="Overland &amp; Sawtelle" lane="-400216783_0" startPos="0.00" endPos="12.30" friendlyPos="true" lines="3"/>
    <busStop id="-8004782665" name="Playa &amp; Rudman" lane="-149009299#5_0" startPos="5.18" endPos="20.18" friendlyPos="true" lines="3"/>
    <busStop id="-8004782667" name="Sepulveda &amp; Berryman" lane="-384144364_0" startPos="5.72" endPos="20.72" friendlyPos="true" lines="4 3 6"/>
    <busStop id="-8004860188" name="Inglewood &amp; Braddock" lane="-159764473#0_0" startPos="18.42" endPos="33.42" friendlyPos="true" lines="2"/>
    <busStop id="-8004860189" name="Inglewood &amp; Allin" lane="-398009815_0" startPos="13.34" endPos="28.34" friendlyPos="true" lines="2"/>
    <busStop id="-8004860192" name="Inglewood &amp; Sanford" lane="-27958312#2_0" startPos="26.63" endPos="41.63" friendlyPos="true" lines="2"/>
    <busStop id="-8004860194" name="Inglewood &amp; Lucile" lane="-136913615#3_0" startPos="65.33" endPos="80.33" friendlyPos="true" lines="2"/>
    <busStop id="-8004860197" name="Inglewood &amp; Juniette" lane="-136913615#1_0" startPos="64.30" endPos="79.30" friendlyPos="true" lines="2"/>
    <busStop id="-8004945298" name="Centinela &amp; Braddock" lane="-398023723#7_0" startPos="17.11" endPos="32.11" friendlyPos="true" lines="14"/>
    <busStop id="-8004945301" name="Centinela &amp; Lucile" lane="-429145365#0_0" startPos="59.27" endPos="74.27" friendlyPos="true" lines="14"/>
    <busStop id="-8007965358" name="Jefferson &amp; Mesmer" lane="-405294847_0" startPos="16.85" endPos="31.85" friendlyPos="true" lines="2"/>
    <busStop id="-8008299992" name="Sepulveda &amp; Centinela" lane="-405294882_0" startPos="15.15" endPos="30.15" friendlyPos="true" lines="6 Rapid 6"/>
    <busStop id="-8008362626" name="Slauson &amp; Bristol" lane="-398357462_0" startPos="44.70" endPos="59.70" friendlyPos="true" lines="3"/>
    <busStop id="-8008362629" name="Slauson &amp; Buckingham" lane="-673127509_0" startPos="9.58" endPos="24.58" friendlyPos="true" lines="3"/>
    <busStop id="-8008472682" name="Bristol &amp; Hannum" lane="-165884141#0_0" startPos="43.58" endPos="58.58" friendlyPos="true" lines="3"/>
    <busStop id="-8008472683" name="Bristol &amp; Uplander" lane="-165884141#6_0" startPos="24.62" endPos="39.62" friendlyPos="true" lines="3"/>
    <busStop id="-8008494085" name="Bristol &amp; Green Valley" lane="-165884141#14_0" startPos="13.70" endPos="25.25" friendlyPos="true" lines="3"/>
    <busStop id="-8008494089" name="Hannum &amp; Uplander" lane="-384142993#0_0" startPos="26.30" endPos="41.30" friendlyPos="true" lines="3"/>
    <busStop id="-8008494092" name="Green Valley &amp; Fox Hills" lane="-604363329#5_0" startPos="20.58" endPos="35.58" friendlyPos="true" lines="3"/>
    <busStop id="-8008494095" name="Buckingham &amp; Hannum" lane="-456933545#1_0" startPos="34.85" endPos="49.85" friendlyPos="true" lines="3"/>
    <busStop id="-8008494096" name="Hannum &amp; Buckingham" lane="-384142993#2_0" startPos="31.36" endPos="46.36" friendlyPos="true" lines="3"/>
    <busStop id="1419803119" name="Motor &amp; Palms" lane="150913651#7_0" startPos="36.21" endPos="51.11" friendlyPos="true" lines="3"/>
    <busStop id="1419803121" name="National &amp; Motor" lane="881824222#0_0" startPos="21.13" endPos="35.93" friendlyPos="true" lines="3"/>
    <busStop id="1419803123" name="Palms &amp; Motor" lane="136914688#2_0" startPos="2.41" endPos="16.49" friendlyPos="true" lines="17"/>
    <busStop id="1419803124" name="Overland &amp; Palms" lane="400225296_0" startPos="0.00" endPos="9.27" friendlyPos="true" lines="Rapid 12"/>
    <busStop id="1419803129" name="National &amp; Exposition (Palms Station)" lane="607284019_0" startPos="72.80" endPos="86.02" friendlyPos="true" lines="17 5"/>
    <busStop id="1419803135" name="Palms &amp; Jasmine" lane="398579025#0_0" startPos="0.00" endPos="8.36" friendlyPos="true" lines="17"/>
    <busStop id="1419803136" name="Westwood &amp; National" lane="398778788#0_0" startPos="16.37" endPos="31.37" friendlyPos="true" lines="Rapid 12 8 3"/>
    <busStop id="1419803141" name="National Place &amp; Overland" lane="398779237#1_0" startPos="16.68" endPos="31.68" friendlyPos="true" lines="Rapid 12 3"/>
    <busStop id="1792548371" name="Motor &amp; Venice" lane="150913651#19_0" startPos="9.28" endPos="24.28" friendlyPos="true" lines="3"/>
    <busStop id="2193439976" name="Expo/Vermont" lane="24924334#0_0" startPos="28.24" endPos="228.24" friendlyPos="true" lines="806"/>
    <busStop id="2193439978" name="Expo/Western" lane="392024718#4_0" startPos="2203.77" endPos="2403.77" friendlyPos="true" lines="806"/>
    <busStop id="2193439983" name="Expo/Western" lane="24924334#0_0" startPos="1638.10" endPos="1838.10" friendlyPos="true" lines="806"/>
    <busStop id="2193446233" name="Expo/Crenshaw" lane="24924334#1_0" startPos="213.25" endPos="392.93" friendlyPos="true" lines="806">
        <access lane="-13278485_0" pos="57.94" length="27.01" friendlyPos="1"/>
        <access lane="-37684096#4_0" pos="68.47" length="17.47" friendlyPos="1"/>
        <access lane="-792371775#0_0" pos="19.75" length="43.95" friendlyPos="1"/>
        <access lane="13278485_0" pos="35.36" length="22.21" friendlyPos="1"/>
        <access lane="37684096#4_0" pos="20.03" length="22.27" friendlyPos="1"/>
    </busStop>
    <busStop id="2193446235" name="Farmdale" lane="24924334#3_0" startPos="394.26" endPos="519.39" friendlyPos="true" lines="806">
        <access lane="-13373144#5_0" pos="15.81" length="22.02" friendlyPos="1"/>
        <access lane="-13468811#2_0" pos="0.20" length="35.40" friendlyPos="1"/>
        <access lane="-524697709_0" pos="19.35" length="19.14" friendlyPos="1"/>
        <access lane="13373144#5_0" pos="50.03" length="17.22" friendlyPos="1"/>
        <access lane="524697709_0" pos="63.77" length="23.94" friendlyPos="1"/>
    </busStop>
    <busStop id="2193446255" name="Farmdale" lane="392024718#0_0" startPos="624.80" endPos="753.36" friendlyPos="true" lines="806">
        <access lane="-457318054#0_0" pos="64.37" length="25.45" friendlyPos="1"/>
        <access lane="-522527045_0" pos="179.76" length="17.74" friendlyPos="1"/>
        <access lane="13468811#0_0" pos="3.58" length="40.66" friendlyPos="1"/>
        <access lane="457318054#0_0" pos="19.10" length="30.25" friendlyPos="1"/>
        <access lane="522522975_0" pos="36.11" length="12.94" friendlyPos="1"/>
    </busStop>
    <busStop id="2193446260" name="Expo/Crenshaw" lane="392024718#2_0" startPos="327.63" endPos="503.06" friendlyPos="true" lines="806">
        <access lane="-165568105#2_0" pos="36.82" length="25.12" friendlyPos="1"/>
        <access lane="-456927939#0_0" pos="0.00" length="23.71" friendlyPos="1"/>
        <access lane="-456927939#1_0" pos="27.83" length="20.31" friendlyPos="1"/>
        <access lane="456927939#0_0" pos="52.30" length="19.78" friendlyPos="1"/>
        <access lane="456927939#1_0" pos="0.00" length="15.54" friendlyPos="1"/>
    </busStop>
    <busStop id="2193456387" name="Expo/La Brea" lane="209115129_0" startPos="1.64" endPos="155.81" friendlyPos="true" lines="806">
        <access lane="-13373161#3_0" pos="24.42" length="14.33" friendlyPos="1"/>
        <access lane="-392024714#0_0" pos="13.23" length="32.02" friendlyPos="1"/>
        <access lane="13373161#3_0" pos="27.34" length="9.53" friendlyPos="1"/>
        <access lane="392024714#0_0" pos="19.19" length="27.22" friendlyPos="1"/>
        <access lane="392024714#1_0" pos="0.00" length="43.64" friendlyPos="1"/>
    </busStop>
    <busStop id="2193456402" name="Culver City" lane="209115130_0" startPos="150.04" endPos="350.04" friendlyPos="true" lines="806">
        <access lane="-838863588#1_0" pos="64.98" length="69.66" friendlyPos="1"/>
        <access lane="394989389#1_0" pos="18.83" length="85.10" friendlyPos="1"/>
        <access lane="394989389#2_0" pos="0.00" length="87.26" friendlyPos="1"/>
        <access lane="812988422#0_0" pos="0.00" length="89.28" friendlyPos="1"/>
        <access lane="838863588#1_0" pos="35.46" length="64.86" friendlyPos="1"/>
    </busStop>
    <busStop id="2995090773" name="Expo/Crenshaw" lane="295753835_0" startPos="2293.95" endPos="2335.73" friendlyPos="true">
        <access lane="-165568111#0_0" pos="0.00" length="21.89" friendlyPos="1"/>
        <access lane="-165568111#2_0" pos="0.20" length="23.01" friendlyPos="1"/>
        <access lane="-37684096#4_0" pos="0.00" length="24.92" friendlyPos="1"/>
        <access lane="165568111#0_0" pos="0.20" length="12.66" friendlyPos="1"/>
        <access lane="165568111#2_0" pos="0.00" length="14.50" friendlyPos="1"/>
    </busStop>
    <busStop id="3205686693" name="Motor &amp; Regent" lane="150913651#14_0" startPos="103.95" endPos="118.95" friendlyPos="true" lines="3"/>
    <busStop id="3254606626" name="Sepulveda &amp; Centinela" lane="405629152#2_0" startPos="12.19" endPos="22.67" friendlyPos="true" lines="6 Rapid 6"/>
    <busStop id="3445774682" name="Buckingham &amp; Slauson" lane="456933545#0_0" startPos="32.20" endPos="47.20" friendlyPos="true" lines="3"/>
    <busStop id="3534427676" name="Westwood/Rancho Park" lane="30968197#4_0" startPos="227.59" endPos="384.46" friendlyPos="true" lines="806">
        <access lane="-867158361#0_0" pos="11.68" length="25.85" friendlyPos="1"/>
        <access lane="-884880976_0" pos="8.88" length="21.87" friendlyPos="1"/>
        <access lane="867158361#0_0" pos="0.00" length="28.43" friendlyPos="1"/>
        <access lane="867158363_0" pos="52.00" length="5.89" friendlyPos="1"/>
        <access lane="884880976_0" pos="317.85" length="24.87" friendlyPos="1"/>
    </busStop>
    <busStop id="3881073410" name="Culver City Transit Center" lane="352174433_0" startPos="13.59" endPos="23.80" friendlyPos="true" lines="6"/>
    <busStop id="3881073411" name="Culver City Transit Center" lane="352174433_0" startPos="30.91" endPos="23.80" friendlyPos="true" lines="4 6"/>