<?xml version="1.0" encoding="UTF-8"?>
<!-- generated on 2020-12-20 13:40:24.428410 by $Id: ptlines2flows.py v1_3_1+0313-ccb31df3eb jakob.erdmann@dlr.de 2019-09-02 13:26:32 +0200 $ UNKNOWN
  options: 
-->
<routes xmlns:xsi="http://www.w3.org/2001/XMLSchema-instance" xsi:noNamespaceSchemaLocation="http://sumo.dlr.de/xsd/routes_file.xsd">
    <vType id="pt_bus" vClass="bus"/>
    <vType id="pt_tram" vClass="tram"/>
    <vType id="pt_train" vClass="rail"/>
    <vType id="pt_subway" vClass="rail_urban"/>
    <vType id="pt_light_rail" vClass="rail_urban"/>
    <vType id="pt_monorail" vClass="rail"/>
    <vType id="pt_trolleybus" vClass="bus"/>
    <vType id="pt_aerialway" vClass="bus"/>
    <vType id="pt_ferry" vClass="ship"/>
    <route id="pt_bus_7:0" edges="404992838 518181559#1 518181559#2 398400824 404992836 398400825 -398400438" >
        <stop busStop="7833716168" duration="30.00" until="54.0"/> <!-- Pico & Sepulveda -->
    </route>
    <route id="pt_bus_5:0" edges="-288116300#8 -288116300#7 -288116300#6 -288116300#5 -288116300#4 -288116300#3 -288116300#2 -288116300#1 607284021#1 607284021#2 607284021#3 607284021#4 607284021#6 607284021#7 607284021#8 607284021#9 607284021#10 607284021#11 607788597#0 607788597#1 607788597#2 607788597#3" >
        <stop busStop="-7836553535" duration="30.00" until="68.0"/> <!-- Motor & Cheviot -->
        <stop busStop="-7836553533" duration="30.00" until="125.0"/> <!-- Motor & Bannockburn -->
        <stop busStop="7844566339" duration="30.00" until="235.0"/> <!-- Manning & National -->
    </route>
    <route id="pt_bus_7:1" edges="404992838 518181559#1 518181559#2 398400824 404992836 398400825 -398400438" >
        <stop busStop="7833716168" duration="30.00" until="123.0"/> <!-- Pico & Sepulveda -->
    </route>
    <route id="pt_bus_Rapid_7:0" edges="404992838 518181559#1 518181559#2 398400824 404992836 398400825 -398400438" >
        <stop busStop="7833716168" duration="30.00" until="176.0"/> <!-- Pico & Sepulveda -->
    </route>
    <route id="pt_bus_5:1" edges="607284020#0 607284020#1 607284019 392360767#0 392360767#1 392360767#2 391441052#1 391441052#2 391441052#3 391441052#4 391441052#5 391441052#6 391441052#7 391441052#8 391441052#9 156414173#0 156414173#1 156414173#2 156414173#3 616846320#0 616846320#2 616846320#3 616846320#4 724343163#0 724343163#1 288116300#1 288116300#2 288116300#3 288116300#4 288116300#5 288116300#6 288116300#7 288116300#8" >
        <stop busStop="7844566339@11773989" duration="30.00" until="31.0"/> <!-- Manning & National -->
        <stop busStop="1419803129" duration="30.00" until="78.0"/> <!-- National & Exposition (Palms Station) -->
        <stop busStop="5002036674" duration="30.00" until="157.0"/> <!-- National & Motor -->
        <stop busStop="7836385648" duration="30.00" until="250.0"/> <!-- Motor & Manning -->
        <stop busStop="7836553532" duration="30.00" until="302.0"/> <!-- Motor & Bannockburn -->
        <stop busStop="7836553534" duration="30.00" until="358.0"/> <!-- Motor & Cheviot -->
    </route>
    <route id="pt_bus_210:0" edges="-398235803#0 398235803#0 398235803#1 398235803#3 398235803#4 398235803#5 398235803#6 398235789#0 -398235789#0" >
        <stop busStop="-6278468524" duration="30.00" until="31.0"/> <!-- Crenshaw/Stocker -->
        <stop busStop="-6278468526" duration="30.00" until="92.0"/> <!-- Crenshaw/43rd St. -->
    </route>
    <route id="pt_bus_102:0" edges="165665944#0 165665944#1 165665944#2 165665944#3 165665944#4 165665944#5 -398235789#1 -398235789#0 -398235803#6 -398235803#5 -398235803#4 -398235803#3 -398235803#1 -398235803#0 -398235798 -522644537" >
    </route>
    <route id="pt_bus_Rapid_12:1" edges="398605039#1 398605039#3 398605035#0 398605035#1 398605034 398605038#0 398605038#1 398605038#2 398605038#3 398605038#5 398605036#0 383987420#1 383987420#2 398784747 400219884 398784751#0 400219883 398605037 398783441#1 398783441#2 400225296 398784749 398784748 398784743 398784750 400225297 398783440#0 398783440#2 398783438#0 398783438#1 288116301#0 288116301#1 288116301#4 288116301#6 288116301#7 288116301#8 288116301#9 288116301#10 398783439#0 398783439#2 398779237#0 398779237#1 159156079 -398778795 -350625891 -398778791#2 -398778791#1 -398778788#0 -404964747#2 -404964747#1 -404964747#0 -404964745#1 -398778797#1 -398778797#0 -404964746 -398414275 -398414264 -403828583 -398414260 -826085998 -398414301 -170301025#2 -170301025#0 -398414289 -398414283#0 -398414254 -398414286" >
        <stop busStop="7814246322" duration="30.00" until="66.0"/> <!-- Overland & Charnock -->
        <stop busStop="1419803124" duration="30.00" until="226.0"/> <!-- Overland & Palms -->
        <stop busStop="7814246323" duration="30.00" until="282.0"/> <!-- Overland & Rose -->
        <stop busStop="1419803141" duration="30.00" until="430.0"/> <!-- National Place & Overland -->
        <stop busStop="-1419803127" duration="30.00" until="496.0"/> <!-- Westwood & National -->
        <stop busStop="-7814246324" duration="30.00" until="586.0"/> <!-- Westwood & Exposition (Westwood Station) -->
    </route>
    <route id="pt_bus_8:0" edges="398414286 398414254 398414283#0 398414289 170301025#0 170301025#2 398414301 826085998 398414260 403828583 398414264 398414275 404964746 398778797#0 398778797#1 404964745#1 404964747#0 404964747#1 404964747#2 398778788#0 -384177635#1 -384177635#0 -398771137#0 -37689821#4 -37689821#3 -37689821#2 -37689821#1 -37689821#0 -398771138#1 -398771138#0 -404964730 -398771139#3 -398771139#2 -398771139#0 -398771136#1 -398771136#0 -398770659#2 -398770659#1 -759468526 -404964732#1 -404964732#0 -398770660#1 -398770660#0 -398770653#2 -398770653#1 -398770653#0 -398770661#2 -398770661#1 -398770661#0 -398251727 -398251732#2 -398251732#1 -398251732#0" >
        <stop busStop="7814287977" duration="30.00" until="108.0"/> <!-- Westwood & Exposition (Westwood Station) -->
        <stop busStop="7830899741" duration="30.00" until="170.0"/> <!-- Westwood & Coventry -->
        <stop busStop="1419803136" duration="30.00" until="232.0"/> <!-- Westwood & National -->
        <stop busStop="-7830975319" duration="30.00" until="323.0"/> <!-- National & Kelton -->
        <stop busStop="-7830975320" duration="30.00" until="382.0"/> <!-- National & Military -->
        <stop busStop="-7830975323" duration="30.00" until="472.0"/> <!-- National & Sepulveda -->
        <stop busStop="-7830975329" duration="30.00" until="585.0"/> <!-- National & Sawtelle -->
    </route>
    <route id="pt_bus_8:1" edges="398414286 398414254 398414283#0 398414289 170301025#0 170301025#2 398414301 826085998 398414260 403828583 398414264 398414275 404964746 398778797#0 398778797#1 404964745#1 404964747#0 404964747#1 404964747#2 398778788#0 -384177635#1 -384177635#0 -398771137#0 -37689821#4 -37689821#3 -37689821#2 -37689821#1 -37689821#0 -398771138#1 -398771138#0 -404964730 -398771139#3 -398771139#2 -398771139#0 -398771136#1 -398771136#0 -398770659#2 -398770659#1 -759468526 -404964732#1 -404964732#0 -398770660#1 -398770660#0 -398770653#2 -398770653#1 -398770653#0 -398770661#2 -398770661#1 -398770661#0 -398251727 -398251732#2 -398251732#1 -398251732#0" >
        <stop busStop="7814287977" duration="30.00" until="125.0"/> <!-- Westwood & Exposition (Westwood Station) -->
        <stop busStop="7830899741" duration="30.00" until="189.0"/> <!-- Westwood & Coventry -->
        <stop busStop="1419803136" duration="30.00" until="290.0"/> <!-- Westwood & National -->
        <stop busStop="-7830975319" duration="30.00" until="394.0"/> <!-- National & Kelton -->
        <stop busStop="-7830975320" duration="30.00" until="453.0"/> <!-- National & Military -->
        <stop busStop="-7830975323" duration="30.00" until="551.0"/> <!-- National & Sepulveda -->
        <stop busStop="-7830975329" duration="30.00" until="723.0"/> <!-- National & Sawtelle -->
    </route>
    <route id="pt_bus_8:2" edges="398251732#0 398251732#1 398251732#2 398251727 398770661#0 398770661#1 398770661#2 398770653#0 398770653#1 398770653#2 398770660#0 398770660#1 404964732#0 404964732#1 398770658 398770659#1 398770659#2 398771136#0 398771136#1 398771139#0 398771139#2 398771139#3 404964730 398771138#0 398771138#1 37689821#0 37689821#1 37689821#2 37689821#3 37689821#4 398771137#0 384177635#0 384177635#1 -398778788#0 -404964747#2 -404964747#1 -404964747#0 -404964745#1 -398778797#1 -398778797#0 -404964746 -398414275 -398414264 -403828583 -398414260 -826085998 -398414301 -170301025#2 -170301025#0 -398414289 -398414283#0 -398414254 -398414286" >
        <stop busStop="7830975330" duration="30.00" until="65.0"/> <!-- National & Butler -->
        <stop busStop="7830975328" duration="30.00" until="153.0"/> <!-- National & Sawtelle -->
        <stop busStop="7830975322" duration="30.00" until="374.0"/> <!-- National & Sepulveda -->
        <stop busStop="7830975321" duration="30.00" until="433.0"/> <!-- National & Military -->
        <stop busStop="7830975318" duration="30.00" until="491.0"/> <!-- National & Kelton -->
        <stop busStop="-1419803127" duration="30.00" until="621.0"/> <!-- Westwood & National -->
        <stop busStop="-7830899742" duration="30.00" until="680.0"/> <!-- Westwood & Coventry -->
        <stop busStop="-7814246324" duration="30.00" until="748.0"/> <!-- Westwood & Exposition (Westwood Station) -->
    </route>
    <route id="pt_bus_8:3" edges="398251732#0 398251732#1 398251732#2 398251727 398770661#0 398770661#1 398770661#2 398770653#0 398770653#1 398770653#2 398770660#0 398770660#1 404964732#0 404964732#1 398770658 398770659#1 398770659#2 398771136#0 398771136#1 398771139#0 398771139#2 398771139#3 404964730 398771138#0 398771138#1 37689821#0 37689821#1 37689821#2 37689821#3 37689821#4 398771137#0 384177635#0 384177635#1 -398778788#0 -404964747#2 -404964747#1 -404964747#0 -404964745#1 -398778797#1 -398778797#0 -404964746 -398414275 -398414264 -403828583 -398414260 -826085998 -398414301 -170301025#2 -170301025#0 -398414289 -398414283#0 -398414254 -398414286" >
        <stop busStop="7830975330" duration="30.00" until="128.0"/> <!-- National & Butler -->
        <stop busStop="7830975328" duration="30.00" until="247.0"/> <!-- National & Sawtelle -->
        <stop busStop="7830975322" duration="30.00" until="409.0"/> <!-- National & Sepulveda -->
        <stop busStop="7830975321" duration="30.00" until="470.0"/> <!-- National & Military -->
        <stop busStop="7830975318" duration="30.00" until="528.0"/> <!-- National & Kelton -->
        <stop busStop="-1419803127" duration="30.00" until="654.0"/> <!-- Westwood & National -->
        <stop busStop="-7830899742" duration="30.00" until="717.0"/> <!-- Westwood & Coventry -->
        <stop busStop="-7814246324" duration="30.00" until="791.0"/> <!-- Westwood & Exposition (Westwood Station) -->
    </route>
    <route id="pt_bus_Rapid_12:0" edges="398414286 398414254 398414283#0 398414289 170301025#0 170301025#2 398414301 826085998 398414260 403828583 398414264 398414275 404964746 398778797#0 398778797#1 404964745#1 404964747#0 404964747#1 404964747#2 398778788#0 398778791#1 398778791#2 350625891 398778795 -159156079 -398779237#1 -398779237#0 -398783439#2 -398783439#0 -288116301#10 -288116301#9 -288116301#8 -288116301#7 -288116301#6 -288116301#4 -288116301#1 -288116301#0 -398783438#1 -398783438#0 -398783440#2 -398783440#0 -400225297 -398784750 -398784743 -398784748 -398784749 -400225296 -398783441#2 -398783441#1 -398605037 -400219883 -398784751#0 -400219884 -398784747 -383987420#2 -383987420#1 -398605036#0 -398605038#5 -398605038#3 -398605038#2 -398605038#1 -398605038#0 -398605034 -398605035#1 -398605035#0 -398605039#3 -398605039#1 384176374#1 398593629#0 398593629#1 398593629#2 398593627#0 398593627#1 167923730#1 167923730#2 167923730#3 398601891 398601893 159117472 398601889 384176167#0 398603625#1 398603625#2 398603625#3 398603624#0 398603624#1 384175004#0 384175004#1 384175004#2 398605039#1 398605039#3" >
        <stop busStop="7814287977" duration="30.00" until="94.0"/> <!-- Westwood & Exposition (Westwood Station) -->
        <stop busStop="1419803136" duration="30.00" until="205.0"/> <!-- Westwood & National -->
        <stop busStop="-5001836121" duration="30.00" until="307.0"/> <!-- Overland & National Place -->
        <stop busStop="-7814287978" duration="30.00" until="418.0"/> <!-- Overland & Rose -->
        <stop busStop="-7814287979" duration="30.00" until="530.0"/> <!-- Overland & Palms -->
        <stop busStop="-7814287980" duration="30.00" until="587.0"/> <!-- Overland & Charnock -->
        <stop busStop="7814287981" duration="30.00" until="709.0"/> <!-- Venice & Overland -->
        <stop busStop="3960923706" duration="30.00" until="807.0"/> <!-- Motor & Washington -->
        <stop busStop="7814287982" duration="30.00" until="868.0"/> <!-- Washington & Overland -->
    </route>
    <route id="pt_bus_14:0" edges="398227135#0 398227135#1 398227135#2 398227135#3 398227135#4 398227131#0 398227131#2 398227132#0 398227132#1 402664760 398227124 404954660#0 404954660#1 404954660#3 404954660#4 404954646 404954650 404954644 404954659#1 159608052#0 159608052#1 159608052#3 159608052#4 404954658 404954653 404954648 383946610 404954655 398007544 858147208 383946611#0 383946611#1 383946611#2 779866235 398025239 398025241 398025237 398025240 400213290 398025235 398025236#0 398025236#1 -398025234#1 -398025234#0 -400213287 -398025243 -398025238 -400213289 -398025242 -398025233 -400213288 -398025244#2 -398025244#1 -398023724#0 -398023723#10 -398023723#9 -398023723#7 -398023723#6 -398023723#5 -398023723#3 -398023723#2 -398023723#0 -159608006#1 -159608006#0 398023728#0 398023728#1 398023726 398023727#0 27656556 -429145365#2 -429145365#1 -429145365#0 -405294837 -405294835 -405294840 -405294834 -405294839 -405294842#0 227755303 405274409" >
        <stop busStop="7855797067" duration="30.00" until="89.0"/> <!-- Centinela & Venice -->
        <stop busStop="7855797069" duration="30.00" until="145.0"/> <!-- Centinela & Barbara -->
        <stop busStop="7855797070" duration="30.00" until="204.0"/> <!-- Centinela & Washington Pl. -->
        <stop busStop="7855797073" duration="30.00" until="265.0"/> <!-- Centinela & Washington Blvd. -->
        <stop busStop="7855797076" duration="30.00" until="410.0"/> <!-- Centinela & Short -->
        <stop busStop="-7855797078" duration="30.00" until="553.0"/> <!-- Centinela & Culver -->
        <stop busStop="-8004945298" duration="30.00" until="624.0"/> <!-- Centinela & Braddock -->
        <stop busStop="8004945299" duration="30.00" until="710.0"/> <!-- Centinela & Marina Fwy. -->
        <stop busStop="-8004945301" duration="30.00" until="807.0"/> <!-- Centinela & Lucile -->
        <stop busStop="8004945304" duration="30.00" until="879.0"/> <!-- Campus Center & Jefferson -->
    </route>
    <route id="pt_bus_740:0" edges="398235795#1 457157033 237019948 398235779 -398235789#1 -398235789#0 -398235803#6 -398235803#5 -398235803#4 -398235803#3 -398235803#1 -398235803#0 -398235798 -522644537 -799521926 -398235781#0 -398235784 -403614790 -398235788#0 398235787#0 398235801#0 398235801#1 398235794 398235780#0 398235780#1 398235792 398235785 398235796 -398235797 -398235790 -398235782 -398231566#0 398231542 518127184 398231505 518127185 398231546#0 398231546#1 398231517 398231534 518117993 398231507 398231548 165568111#0 165568111#2 457147590 403655664#0 403655664#1 398231527 398231550#0 398231550#1 398231500 398231540 398231679#0 398231679#1 607194248#0 607194248#1 607194248#2 607194248#3" >
        <stop busStop="-6278468524" duration="30.00" until="132.0"/> <!-- Crenshaw/Stocker -->
    </route>
    <route id="pt_bus_105:0" edges="742089606 398241777#0 398235795#1 457157033 237019948 398235779 -398235789#1 -398235789#0 -398235803#6 -398235803#5 -398235803#4 -398235803#3 -398235803#1 -398235803#0 398235803#0 398235803#1 398235803#3 398235803#4 398235803#5 398235803#6 398235789#0 -398235789#0 -398235803#6 -398235803#5 -398235803#4 -398235803#3 -398235803#1 -398235803#0 -398235798 -522644537 -799521926 -398235781#0 -398235784 -403614790 -398235788#0 161232662#0 161232662#1 124425038 124425029#0 124425029#1 124425029#2 398239880#0 398239909#1 398239909#2 398239909#3 398239887#0 398239887#1 398239893#0 398239893#1 398239885#0 398239885#1 398387380#1 398387380#2 398387375#0 398387375#1 132500432#0 132500432#1 398387373#0 398387373#1 398387378 398387384 398387387 398387395 398387390#0 398387390#1 384149484#1 384149484#2 398387407#0 398387407#1 398387407#2 384149483#0 384149483#1 159606600#1 398387401 398387392 398387398 398387396 398387397 398387393" >
        <stop busStop="-6278468524" duration="30.00" until="106.0"/> <!-- Crenshaw/Stocker -->
        <stop busStop="-6278468526" duration="30.00" until="169.0"/> <!-- Crenshaw/43rd St. -->
    </route>
    <route id="pt_bus_710:0" edges="398231542 518127184 -518127184 -398231542 398231555 398235782 398235790 398235797 -398235796 -398235785 -398235792 -398235780#1 -398235780#0 -398235794 -398235801#1 -398235801#0 -398235787#0 398235788#0 398235788#1 398235784 398235781#0 799521926 522644537 398235798 398235803#0 -398235803#0 -398235798 -522644537 -799521926 -398235781#0 -398235784 -403614790 -398235788#0 398235787#0 398235801#0 398235801#1 398235794 398235780#0 398235780#1 398235792 398235785 398235796 -398235797 -398235790 -398235782 -398231566#0" >
        <stop busStop="-6278468524" duration="30.00" until="309.0"/> <!-- Crenshaw/Stocker -->
    </route>
    <route id="pt_bus_14:1" edges="398227135#0 398227135#1 398227135#2 398227135#3 398227135#4 398227131#0 398227131#2 398227132#0 398227132#1 402664760 398227124 404954660#0 404954660#1 404954660#3 404954660#4 404954646 404954650 404954644 404954659#1 159608052#0 159608052#1 159608052#3 159608052#4 404954658 404954653 404954648 383946610 404954655 398007544 858147208 383946611#0 383946611#1 383946611#2 779866235 398025239 398025241 398025237 398025240 400213290 398025235 398025236#0 398025236#1 -398025234#1 -398025234#0 -400213287 -398025243 -398025238 -400213289 -398025242 -398025233 -400213288 -398025244#2 -398025244#1 -398023724#0 -398023723#10 -398023723#9 -398023723#7 -398023723#6 -398023723#5 -398023723#3 -398023723#2 -398023723#0 -159608006#1 -159608006#0 398023728#0 398023728#1 398023726 398023727#0 27656556 -429145365#2 -429145365#1 -429145365#0 -405294837 -405294835 -405294840 -405294834 -405294839 -405294842#0 227755303 405274409" >
        <stop busStop="7855797067" duration="30.00" until="138.0"/> <!-- Centinela & Venice -->
        <stop busStop="7855797069" duration="30.00" until="193.0"/> <!-- Centinela & Barbara -->
        <stop busStop="7855797070" duration="30.00" until="253.0"/> <!-- Centinela & Washington Pl. -->
        <stop busStop="7855797073" duration="30.00" until="315.0"/> <!-- Centinela & Washington Blvd. -->
        <stop busStop="7855797076" duration="30.00" until="462.0"/> <!-- Centinela & Short -->
        <stop busStop="-7855797078" duration="30.00" until="578.0"/> <!-- Centinela & Culver -->
        <stop busStop="-8004945298" duration="30.00" until="651.0"/> <!-- Centinela & Braddock -->
        <stop busStop="8004945299" duration="30.00" until="759.0"/> <!-- Centinela & Marina Fwy. -->
        <stop busStop="-8004945301" duration="30.00" until="842.0"/> <!-- Centinela & Lucile -->
        <stop busStop="8004945304" duration="30.00" until="939.0"/> <!-- Campus Center & Jefferson -->
    </route>
    <route id="pt_bus_40:0" edges="398235795#1 457157033 237019948 398235779 -398235789#1 -398235789#0 -398235803#6 -398235803#5 -398235803#4 -398235803#3 -398235803#1 -398235803#0 -398235798 -522644537 -799521926 -398235781#0 -398235784 -403614790 -398235788#0 -398239908#3 -398239908#1 -398239908#0 -521665370 -398239907 -398239888 -398239900 398239900 398239888 398239907 521665370 403614589 398239908#1 398239908#3 398235788#0 398235788#1 398235784 398235781#0 799521926 522644537 398235798 398235803#0 -398235803#0 398235803#0 398235803#1 398235803#3 398235803#4 398235803#5 398235803#6 398235789#0 -398235789#0 -398235803#6 -398235803#5 -398235803#4 -398235803#3 -398235803#1 -398235803#0 -398235798 -522644537 -799521926 -398235781#0 -398235784 -403614790 -398235788#0 -398239908#3 -398239908#1 -398239908#0 -521665370 -398239907 -398239888 -398239900" >
        <stop busStop="-6278468517" duration="30.00" until="261.0"/> <!-- Martin Luther King Jr/Degnan -->
        <stop busStop="-6278468524" duration="30.00" until="437.0"/> <!-- Crenshaw/Stocker -->
        <stop busStop="-6278468526" duration="30.00" until="500.0"/> <!-- Crenshaw/43rd St. -->
    </route>
    <route id="pt_bus_14:2" edges="607283923 405294884 383014031 185399301 165880072#0 165880072#1 405294860#0 405294860#1 405294853 185399264#0 185399264#1 185399264#2 227755303 405274409 405294833#1 405294832 160505041 405294842#0 405294842#2 405294834 405294840 405294836 405294838 429145365#0 429145365#1 429145365#2 429145758 746826515#1 746826515#2 159608006#0 159608006#1 159608036 398023723#2 398023723#3 398023723#4 398023723#6 398023723#7 398023723#9 398023723#10 398023724#0 398025244#1 398025244#2 400213288 398025233 398025242 400213289 398025238 398025243 400213287 398025234#0 398025234#1 -398025236#1 -398025236#0 -398025235 -398025232 -398025240 -398025237 -398025241 -398025239 -779866235 -383946611#2 -383946611#1 -383946611#0 -858147208 -398007544 -404954655 -383946610 -404954648 -404954652 -404954658 -404954656 -159608052#3 -159608052#1 -159608052#0 -404954659#1 -404954659#0 -404954651 -404954647 -404954660#4 -404954660#3 -404954660#1 -404954660#0 -398227124 -402664760 -398227132#1 -398227132#0 -398227131#2 -398227131#0 -398227135#4 -398227135#3 -398227135#2 -398227135#1 -398227135#0" >
        <stop busStop="8008082609" duration="30.00" until="163.0"/> <!-- Campus Center & Waterfront -->
        <stop busStop="8004945303" duration="30.00" until="237.0"/> <!-- Centinela & Juniette -->
        <stop busStop="8004945302" duration="30.00" until="298.0"/> <!-- Centinela & Lucile -->
        <stop busStop="8004945300" duration="30.00" until="392.0"/> <!-- Centinela & Marina Fwy. -->
        <stop busStop="8004945297" duration="30.00" until="478.0"/> <!-- Centinela & Braddock -->
        <stop busStop="7855797077" duration="30.00" until="548.0"/> <!-- Centinela & Culver -->
        <stop busStop="-7855797075" duration="30.00" until="648.0"/> <!-- Centinela & Short -->
        <stop busStop="-7855797074" duration="30.00" until="708.0"/> <!-- Centinela & Louise -->
        <stop busStop="-7855797072" duration="30.00" until="792.0"/> <!-- Centinela & Washington Blvd. -->
        <stop busStop="-7855797071" duration="30.00" until="843.0"/> <!-- Centinela & Washington Pl. -->
        <stop busStop="-7855797068" duration="30.00" until="911.0"/> <!-- Centinela & Barbara -->
        <stop busStop="-7855797066" duration="30.00" until="969.0"/> <!-- Centinela & Venice -->
    </route>
    <route id="pt_bus_14:3" edges="607283923 405294884 383014031 185399301 165880072#0 165880072#1 405294860#0 405294860#1 405294853 185399264#0 185399264#1 185399264#2 227755303 405274409 405294833#1 405294832 160505041 405294842#0 405294842#2 405294834 405294840 405294836 405294838 429145365#0 429145365#1 429145365#2 429145758 746826515#1 746826515#2 159608006#0 159608006#1 159608036 398023723#2 398023723#3 398023723#4 398023723#6 398023723#7 398023723#9 398023723#10 398023724#0 398025244#1 398025244#2 400213288 398025233 398025242 400213289 398025238 398025243 400213287 398025234#0 398025234#1 -398025236#1 -398025236#0 -398025235 -398025232 -398025240 -398025237 -398025241 -398025239 -779866235 -383946611#2 -383946611#1 -383946611#0 -858147208 -398007544 -404954655 -383946610 -404954648 -404954652 -404954658 -404954656 -159608052#3 -159608052#1 -159608052#0 -404954659#1 -404954659#0 -404954651 -404954647 -404954660#4 -404954660#3 -404954660#1 -404954660#0 -398227124 -402664760 -398227132#1 -398227132#0 -398227131#2 -398227131#0 -398227135#4 -398227135#3 -398227135#2 -398227135#1 -398227135#0" >
        <stop busStop="8008082609" duration="30.00" until="197.0"/> <!-- Campus Center & Waterfront -->
        <stop busStop="8004945303" duration="30.00" until="303.0"/> <!-- Centinela & Juniette -->
        <stop busStop="8004945302" duration="30.00" until="359.0"/> <!-- Centinela & Lucile -->
        <stop busStop="8004945300" duration="30.00" until="435.0"/> <!-- Centinela & Marina Fwy. -->
        <stop busStop="8004945297" duration="30.00" until="531.0"/> <!-- Centinela & Braddock -->
        <stop busStop="7855797077" duration="30.00" until="614.0"/> <!-- Centinela & Culver -->
        <stop busStop="-7855797075" duration="30.00" until="728.0"/> <!-- Centinela & Short -->
        <stop busStop="-7855797074" duration="30.00" until="789.0"/> <!-- Centinela & Louise -->
        <stop busStop="-7855797072" duration="30.00" until="913.0"/> <!-- Centinela & Washington Blvd. -->
        <stop busStop="-7855797071" duration="30.00" until="965.0"/> <!-- Centinela & Washington Pl. -->
        <stop busStop="-7855797068" duration="30.00" until="1060.0"/> <!-- Centinela & Barbara -->
        <stop busStop="-7855797066" duration="30.00" until="1118.0"/> <!-- Centinela & Venice -->
    </route>
    <route id="pt_bus_Leimert/Slauson:0" edges="398235795#1 457157033 237019948 398235779 -398235789#1 -398235789#0 -398235803#6 -398235803#5 -398235803#4 -398235803#3 -398235803#1 -398235803#0 -398235798 -522644537 -799521926 -398235781#0 -398235784 -403614790 -398235788#0 -398239908#3 -398239908#1 -398239908#0 -521665370 -398239907 -398239888 -398239900 398239900 398239888 398239907 521665370 403614589 398239908#1 398239908#3 398235788#0 398235788#1 398235784 398235781#0 799521926 522644537 398235798 398235803#0 -398235803#0 398235803#0 398235803#1 398235803#3 398235803#4 398235803#5 398235803#6 398235789#0 -398235789#0 -398235803#6 -398235803#5 -398235803#4 -398235803#3 -398235803#1 -398235803#0 -398235798 -522644537 -799521926 -398235781#0 -398235784 -403614790 -398235788#0 -398239908#3 -398239908#1 -398239908#0 -521665370 -398239907 -398239888 -398239900" >
        <stop busStop="-6278468517" duration="30.00" until="430.0"/> <!-- Martin Luther King Jr/Degnan -->
        <stop busStop="-6278468524" duration="30.00" until="559.0"/> <!-- Crenshaw/Stocker -->
        <stop busStop="-6278468526" duration="30.00" until="620.0"/> <!-- Crenshaw/43rd St. -->
    </route>
    <route id="pt_light_rail_806:1" edges="650427046 291399484 650427047 30968183#1 30968183#2 30968183#3 30968183#4 30968183#5 30968183#6 30968183#7 30968183#8 30968183#9 30968183#10 267159405#1 267159405#2 267159396 267159401#1 209115130 650427053 209115127#1 209115127#3 209115133 209115132#0 209115132#1 209115129 392024718#0 392024718#1 392024718#2 392024718#3 392024718#4" >
        <stop busStop="4400281323" duration="30.00" until="49.0"/> <!-- Expo/Sepulveda -->
        <stop busStop="4400281335" duration="30.00" until="133.0"/> <!-- Westwood/Rancho Park -->
        <stop busStop="4400281333" duration="30.00" until="258.0"/> <!-- Palms -->
        <stop busStop="2193456402" duration="30.00" until="361.0"/> <!-- Culver City -->
        <stop busStop="4400281331" duration="30.00" until="465.0"/> <!-- La Cienega/Jefferson -->
        <stop busStop="2193456387" duration="30.00" until="568.0"/> <!-- Expo/La Brea -->
        <stop busStop="2193446255" duration="30.00" until="643.0"/> <!-- Farmdale -->
        <stop busStop="2193446260" duration="30.00" until="727.0"/> <!-- Expo/Crenshaw -->
        <stop busStop="2193439978" duration="30.00" until="876.0"/> <!-- Expo/Western -->
    </route>
    <route id="pt_light_rail_806:0" edges="24924334#0 24924334#1 24924334#2 24924334#3 24924334#4 51805349 28902266#0 28902266#1 148818231 148818232 123803976#1 123803976#2 72839540 650427056 267159406#1 346997704#0 346997704#1 663272236 346997704#3 346997704#4 30968197#1 30968197#2 30968197#3 30968197#4 30968197#5 30968197#6 30968197#7 30968197#8 30968197#9 30968197#10 346996829 346998176" >
        <stop busStop="2193439976" duration="30.00" until="48.0"/> <!-- Expo/Vermont -->
        <stop busStop="2193439983" duration="30.00" until="154.0"/> <!-- Expo/Western -->
        <stop busStop="2193446233" duration="30.00" until="282.0"/> <!-- Expo/Crenshaw -->
        <stop busStop="2193446235" duration="30.00" until="367.0"/> <!-- Farmdale -->
        <stop busStop="4400281322" duration="30.00" until="448.0"/> <!-- Expo/La Brea -->
        <stop busStop="4400281332" duration="30.00" until="552.0"/> <!-- La Cienega/Jefferson -->
        <stop busStop="4400281315" duration="30.00" until="659.0"/> <!-- Culver City -->
        <stop busStop="4400281334" duration="30.00" until="758.0"/> <!-- Palms -->
        <stop busStop="3534427676" duration="30.00" until="884.0"/> <!-- Westwood/Rancho Park -->
        <stop busStop="4400281324" duration="30.00" until="963.0"/> <!-- Expo/Sepulveda -->
    </route>