<?xml version="1.0" encoding="UTF-8"?>

<!-- generated on Sun Dec 13 13:31:57 2020 by Eclipse SUMO sumo Version 1.8.0
-->

<configuration xmlns:xsi="http://www.w3.org/2001/XMLSchema-instance" xsi:noNamespaceSchemaLocation="http://sumo.dlr.de/xsd/sumoConfiguration.xsd">

    <input>
        <net-file value="test-grid.net.xml"/>
        <route-files value="test-grid-demand.trips.xml"/>

    </input>

    <processing>
        <ignore-route-errors value="true"/>
    </processing>

    <routing>
        <device.rerouting.adaptation-steps value="100"/>
        <device.rerouting.adaptation-interval value="1"/>
    </routing>

    <report>
        <verbose value="true"/>
        <duration-log.statistics value="true"/>
    </report>

</configuration>
