<?xml version="1.0" encoding="UTF-8"?>

<!-- generated on Sat Jan 16 18:15:12 2021 by Eclipse SUMO duarouter Version 1.8.0
<configuration xmlns:xsi="http://www.w3.org/2001/XMLSchema-instance" xsi:noNamespaceSchemaLocation="http://sumo.dlr.de/xsd/duarouterConfiguration.xsd">

    <input>
        <net-file value="test-grid.net.xml"/>
        <route-files value="test-grid-demand.trips.xml"/>
    </input>

    <output>
        <output-file value="test-grid-demand.trips.xml.tmp"/>
        <write-trips value="true"/>
    </output>

    <time>
        <begin value="0"/>
        <end value="600"/>
    </time>

    <report>
        <no-warnings value="true"/>
        <ignore-errors value="true"/>
        <no-step-log value="true"/>
    </report>

</configuration>
-->

<routes xmlns:xsi="http://www.w3.org/2001/XMLSchema-instance" xsi:noNamespaceSchemaLocation="http://sumo.dlr.de/xsd/routes_file.xsd">
    <vType id="veh_passenger" vClass="passenger"/>
    <trip id="veh1" type="veh_passenger" depart="20.00" from="6-5" to="1-2"/>
    <trip id="veh2" type="veh_passenger" depart="40.00" from="6-7" to="3-2"/>
    <trip id="veh3" type="veh_passenger" depart="60.00" from="6-7" to="1-2"/>
    <trip id="veh4" type="veh_passenger" depart="80.00" from="6-5" to="0-1"/>
    <trip id="veh5" type="veh_passenger" depart="100.00" from="6-5" to="3-2"/>
    <trip id="veh6" type="veh_passenger" depart="120.00" from="0-1" to="1-2"/>
    <trip id="veh7" type="veh_passenger" depart="140.00" from="6-7" to="3-2"/>
    <trip id="veh8" type="veh_passenger" depart="160.00" from="6-5" to="3-2"/>
    <trip id="veh10" type="veh_passenger" depart="200.00" from="6-7" to="3-2"/>
    <trip id="veh11" type="veh_passenger" depart="220.00" from="6-5" to="1-2"/>
    <trip id="veh14" type="veh_passenger" depart="280.00" from="6-7" to="3-2"/>
    <trip id="veh15" type="veh_passenger" depart="300.00" from="6-7" to="3-2"/>
    <trip id="veh16" type="veh_passenger" depart="320.00" from="6-7" to="8-3"/>
    <trip id="veh17" type="veh_passenger" depart="340.00" from="6-5" to="3-2"/>
    <trip id="veh18" type="veh_passenger" depart="360.00" from="6-7" to="3-2"/>
    <trip id="veh19" type="veh_passenger" depart="380.00" from="6-7" to="3-2"/>
    <trip id="veh20" type="veh_passenger" depart="400.00" from="6-7" to="1-2"/>
    <trip id="veh21" type="veh_passenger" depart="420.00" from="6-5" to="1-2"/>
    <trip id="veh24" type="veh_passenger" depart="480.00" from="6-7" to="1-2"/>
    <trip id="veh25" type="veh_passenger" depart="500.00" from="6-5" to="1-2"/>
    <trip id="veh27" type="veh_passenger" depart="540.00" from="6-7" to="3-2"/>
    <trip id="veh28" type="veh_passenger" depart="560.00" from="5-4" to="3-2"/>
    <trip id="veh29" type="veh_passenger" depart="580.00" from="5-4" to="1-2"/>
</routes>
