<?xml version="1.0" encoding="UTF-8"?>

<!-- generated on Sat Jan 16 18:47:57 2021 by Eclipse SUMO netedit Version 1.8.0
<configuration xmlns:xsi="http://www.w3.org/2001/XMLSchema-instance" xsi:noNamespaceSchemaLocation="http://sumo.dlr.de/xsd/netconvertConfiguration.xsd">

    <input>
        <sumo-net-file value="/Users/ayushs/dev/warpdriv-simulation/traci-test/test-grid.net.xml"/>
    </input>

    <output>
        <output-file value="/Users/ayushs/dev/warpdriv-simulation/traci-test/test-grid.net.xml"/>
    </output>

    <processing>
        <geometry.min-radius.fix.railways value="false"/>
        <geometry.max-grade.fix value="false"/>
        <offset.disable-normalization value="true"/>
        <lefthand value="false"/>
    </processing>

    <junctions>
        <no-turnarounds value="true"/>
        <junctions.corner-detail value="5"/>
        <junctions.limit-turn-speed value="5.5"/>
        <rectangular-lane-cut value="false"/>
    </junctions>

    <pedestrian>
        <walkingareas value="false"/>
    </pedestrian>

    <report>
        <aggregate-warnings value="5"/>
    </report>

</configuration>
-->

<net version="1.6" junctionCornerDetail="5" limitTurnSpeed="5.50" xmlns:xsi="http://www.w3.org/2001/XMLSchema-instance" xsi:noNamespaceSchemaLocation="http://sumo.dlr.de/xsd/net_file.xsd">

    <location netOffset="0.00,0.00" convBoundary="0.00,0.00,100.00,100.00" origBoundary="-10000000000.00,-10000000000.00,10000000000.00,10000000000.00" projParameter="!"/>

    <edge id=":0_0" function="internal">
        <lane id=":0_0_0" index="0" speed="3.90" length="2.58" shape="-1.60,0.00 -1.50,-0.70 -1.20,-1.20 -0.70,-1.50 0.00,-1.60"/>
    </edge>
    <edge id=":1_0" function="internal">
        <lane id=":1_0_0" index="0" speed="6.51" length="4.28" shape="48.40,4.00 48.75,1.55 49.68,-0.00"/>
    </edge>
    <edge id=":1_2" function="internal">
        <lane id=":1_2_0" index="0" speed="6.51" length="4.75" shape="49.68,-0.00 49.80,-0.20 51.55,-1.25 54.00,-1.60"/>
    </edge>
    <edge id=":1_1" function="internal">
        <lane id=":1_1_0" index="0" speed="13.89" length="11.20" shape="42.80,-1.60 54.00,-1.60"/>
    </edge>
    <edge id=":3_0" function="internal">
        <lane id=":3_0_0" index="0" speed="13.89" length="11.20" shape="98.40,54.00 98.40,42.80"/>
    </edge>
    <edge id=":3_1" function="internal">
        <lane id=":3_1_0" index="0" speed="6.51" length="9.03" shape="92.80,48.40 95.25,48.05 97.00,47.00 98.05,45.25 98.40,42.80"/>
    </edge>
    <edge id=":4_0" function="internal">
        <lane id=":4_0_0" index="0" speed="13.89" length="11.20" shape="48.40,54.00 48.40,42.80"/>
    </edge>
    <edge id=":4_1" function="internal">
        <lane id=":4_1_0" index="0" speed="6.51" length="4.28" shape="48.40,54.00 48.75,51.55 49.68,50.00"/>
    </edge>
    <edge id=":4_4" function="internal">
        <lane id=":4_4_0" index="0" speed="6.51" length="4.75" shape="49.68,50.00 49.80,49.80 51.55,48.75 54.00,48.40"/>
    </edge>
    <edge id=":4_2" function="internal">
        <lane id=":4_2_0" index="0" speed="6.51" length="9.03" shape="42.80,48.40 45.25,48.05 47.00,47.00 48.05,45.25 48.40,42.80"/>
    </edge>
    <edge id=":4_3" function="internal">
        <lane id=":4_3_0" index="0" speed="13.89" length="11.20" shape="42.80,48.40 54.00,48.40"/>
    </edge>
    <edge id=":5_0" function="internal">
        <lane id=":5_0_0" index="0" speed="13.89" length="11.20" shape="-1.60,54.00 -1.60,42.80"/>
    </edge>
    <edge id=":5_1" function="internal">
        <lane id=":5_1_0" index="0" speed="6.51" length="9.03" shape="-1.60,54.00 -1.25,51.55 -0.20,49.80 1.55,48.75 4.00,48.40"/>
    </edge>
    <edge id=":7_0" function="internal">
        <lane id=":7_0_0" index="0" speed="6.51" length="9.03" shape="42.80,98.40 45.25,98.05 47.00,97.00 48.05,95.25 48.40,92.80"/>
    </edge>
    <edge id=":7_1" function="internal">
        <lane id=":7_1_0" index="0" speed="13.89" length="11.20" shape="42.80,98.40 54.00,98.40"/>
    </edge>
    <edge id=":8_0" function="internal">
        <lane id=":8_0_0" index="0" speed="3.90" length="2.58" shape="96.80,98.40 97.50,98.30 98.00,98.00 98.30,97.50 98.40,96.80"/>
    </edge>

    <edge id="0-1" from="0" to="1" priority="-1">
        <lane id="0-1_0" index="0" speed="13.89" length="42.80" shape="0.00,-1.60 42.80,-1.60"/>
    </edge>
    <edge id="1-2" from="1" to="2" priority="-1">
        <lane id="1-2_0" index="0" speed="13.89" length="41.30" shape="54.00,-1.60 95.30,-1.60"/>
    </edge>
    <edge id="3-2" from="3" to="2" priority="-1">
        <lane id="3-2_0" index="0" speed="13.89" length="41.30" shape="98.40,42.80 98.40,1.50"/>
    </edge>
    <edge id="4-1" from="4" to="1" priority="-1">
        <lane id="4-1_0" index="0" speed="13.89" length="38.80" shape="48.40,42.80 48.40,4.00"/>
    </edge>
    <edge id="4-3" from="4" to="3" priority="-1">
        <lane id="4-3_0" index="0" speed="13.89" length="38.80" shape="54.00,48.40 92.80,48.40"/>
    </edge>
    <edge id="5-0" from="5" to="0" priority="-1">
        <lane id="5-0_0" index="0" speed="13.89" length="42.80" shape="-1.60,42.80 -1.60,0.00"/>
    </edge>
    <edge id="5-4" from="5" to="4" priority="-1">
        <lane id="5-4_0" index="0" speed="13.89" length="38.80" shape="4.00,48.40 42.80,48.40"/>
    </edge>
    <edge id="6-5" from="6" to="5" priority="-1">
        <lane id="6-5_0" index="0" speed="13.89" length="41.30" shape="-1.60,95.30 -1.60,54.00"/>
    </edge>
    <edge id="6-7" from="6" to="7" priority="-1">
        <lane id="6-7_0" index="0" speed="13.89" length="41.30" shape="1.50,98.40 42.80,98.40"/>
    </edge>
    <edge id="7-4" from="7" to="4" priority="-1">
        <lane id="7-4_0" index="0" speed="13.89" length="38.80" shape="48.40,92.80 48.40,54.00"/>
    </edge>
    <edge id="7-8" from="7" to="8" priority="-1">
        <lane id="7-8_0" index="0" speed="13.89" length="42.80" shape="54.00,98.40 96.80,98.40"/>
    </edge>
    <edge id="8-3" from="8" to="3" priority="-1">
        <lane id="8-3_0" index="0" speed="13.89" length="42.80" shape="98.40,96.80 98.40,54.00"/>
    </edge>

    <junction id="0" type="priority" x="0.00" y="0.00" incLanes="5-0_0" intLanes=":0_0_0" shape="-3.20,0.00 0.00,0.00 0.00,-3.20 -1.78,-2.84 -2.40,-2.40 -2.84,-1.78 -3.11,-0.98">
        <request index="0" response="0" foes="0" cont="0"/>
    </junction>
    <junction id="1" type="priority" x="50.00" y="0.00" incLanes="4-1_0 0-1_0" intLanes=":1_2_0 :1_1_0" shape="46.80,4.00 50.00,4.00 50.44,1.78 51.00,1.00 51.78,0.44 52.78,0.11 54.00,0.00 54.00,-3.20 42.80,-3.20 42.80,0.00 45.02,0.44 45.80,1.00 46.36,1.78 46.69,2.78">
        <request index="0" response="10" foes="10" cont="1"/>
        <request index="1" response="00" foes="01" cont="0"/>
    </junction>
    <junction id="2" type="dead_end" x="100.00" y="0.00" incLanes="3-2_0 1-2_0" intLanes="" shape="96.80,1.50 100.00,1.50 99.48,-1.11 98.83,-2.03 97.91,-2.68 96.74,-3.07 95.30,-3.20 95.30,0.00 96.13,0.17 96.43,0.38 96.63,0.67 96.76,1.04"/>
    <junction id="3" type="priority" x="100.00" y="50.00" incLanes="8-3_0 4-3_0" intLanes=":3_0_0 :3_1_0" shape="96.80,54.00 100.00,54.00 100.00,42.80 96.80,42.80 96.36,45.02 95.80,45.80 95.02,46.36 94.02,46.69 92.80,46.80 92.80,50.00 95.02,50.44 95.80,51.00 96.36,51.78 96.69,52.78">
        <request index="0" response="10" foes="10" cont="0"/>
        <request index="1" response="00" foes="01" cont="0"/>
    </junction>
    <junction id="4" type="priority" x="50.00" y="50.00" incLanes="7-4_0 5-4_0" intLanes=":4_0_0 :4_4_0 :4_2_0 :4_3_0" shape="46.80,54.00 50.00,54.00 50.44,51.78 51.00,51.00 51.78,50.44 52.78,50.11 54.00,50.00 54.00,46.80 51.78,46.36 51.00,45.80 50.44,45.02 50.11,44.02 50.00,42.80 46.80,42.80 46.36,45.02 45.80,45.80 45.02,46.36 44.02,46.69 42.80,46.80 42.80,50.00 45.02,50.44 45.80,51.00 46.36,51.78 46.69,52.78">
        <request index="0" response="1100" foes="1100" cont="0"/>
        <request index="1" response="1000" foes="1000" cont="1"/>
        <request index="2" response="0000" foes="0001" cont="0"/>
        <request index="3" response="0000" foes="0011" cont="0"/>
    </junction>
    <junction id="5" type="priority" x="0.00" y="50.00" incLanes="6-5_0" intLanes=":5_0_0 :5_1_0" shape="-3.20,54.00 0.00,54.00 0.44,51.78 1.00,51.00 1.78,50.44 2.78,50.11 4.00,50.00 4.00,46.80 1.78,46.36 1.00,45.80 0.44,45.02 0.11,44.02 0.00,42.80 -3.20,42.80">
        <request index="0" response="00" foes="00" cont="0"/>
        <request index="1" response="00" foes="00" cont="0"/>
    </junction>
    <junction id="6" type="dead_end" x="0.00" y="100.00" incLanes="" intLanes="" shape="1.50,100.00 1.50,96.80 0.67,96.63 0.38,96.43 0.17,96.13 0.04,95.76 0.00,95.30 -3.20,95.30 -2.68,97.91 -2.03,98.83 -1.11,99.48 0.06,99.87"/>
    <junction id="7" type="priority" x="50.00" y="100.00" incLanes="6-7_0" intLanes=":7_0_0 :7_1_0" shape="54.00,100.00 54.00,96.80 51.78,96.36 51.00,95.80 50.44,95.02 50.11,94.02 50.00,92.80 46.80,92.80 46.36,95.02 45.80,95.80 45.02,96.36 44.02,96.69 42.80,96.80 42.80,100.00">
        <request index="0" response="00" foes="00" cont="0"/>
        <request index="1" response="00" foes="00" cont="0"/>
    </junction>
    <junction id="8" type="priority" x="100.00" y="100.00" incLanes="7-8_0" intLanes=":8_0_0" shape="100.00,96.80 96.80,96.80 96.80,100.00 98.58,99.64 99.20,99.20 99.64,98.58 99.91,97.78">
        <request index="0" response="0" foes="0" cont="0"/>
    </junction>

    <junction id=":1_2_0" type="internal" x="49.68" y="-0.00" incLanes=":1_0_0 0-1_0" intLanes=":1_1_0"/>
    <junction id=":4_4_0" type="internal" x="49.68" y="50.00" incLanes=":4_1_0 5-4_0" intLanes=":4_3_0"/>

    <connection from="0-1" to="1-2" fromLane="0" toLane="0" via=":1_1_0" dir="s" state="M"/>
    <connection from="4-1" to="1-2" fromLane="0" toLane="0" via=":1_0_0" dir="l" state="m"/>
    <connection from="4-3" to="3-2" fromLane="0" toLane="0" via=":3_1_0" dir="r" state="M"/>
    <connection from="5-0" to="0-1" fromLane="0" toLane="0" via=":0_0_0" dir="l" state="M"/>
    <connection from="5-4" to="4-1" fromLane="0" toLane="0" via=":4_2_0" dir="r" state="M"/>
    <connection from="5-4" to="4-3" fromLane="0" toLane="0" via=":4_3_0" dir="s" state="M"/>
    <connection from="6-5" to="5-0" fromLane="0" toLane="0" via=":5_0_0" dir="s" state="M"/>
    <connection from="6-5" to="5-4" fromLane="0" toLane="0" via=":5_1_0" dir="l" state="M"/>
    <connection from="6-7" to="7-4" fromLane="0" toLane="0" via=":7_0_0" dir="r" state="M"/>
    <connection from="6-7" to="7-8" fromLane="0" toLane="0" via=":7_1_0" dir="s" state="M"/>
    <connection from="7-4" to="4-1" fromLane="0" toLane="0" via=":4_0_0" dir="s" state="m"/>
    <connection from="7-4" to="4-3" fromLane="0" toLane="0" via=":4_1_0" dir="l" state="m"/>
    <connection from="7-8" to="8-3" fromLane="0" toLane="0" via=":8_0_0" dir="r" state="M"/>
    <connection from="8-3" to="3-2" fromLane="0" toLane="0" via=":3_0_0" dir="s" state="m"/>

    <connection from=":0_0" to="0-1" fromLane="0" toLane="0" dir="l" state="M"/>
    <connection from=":1_0" to="1-2" fromLane="0" toLane="0" via=":1_2_0" dir="l" state="m"/>
    <connection from=":1_2" to="1-2" fromLane="0" toLane="0" dir="l" state="M"/>
    <connection from=":1_1" to="1-2" fromLane="0" toLane="0" dir="s" state="M"/>
    <connection from=":3_0" to="3-2" fromLane="0" toLane="0" dir="s" state="M"/>
    <connection from=":3_1" to="3-2" fromLane="0" toLane="0" dir="r" state="M"/>
    <connection from=":4_0" to="4-1" fromLane="0" toLane="0" dir="s" state="M"/>
    <connection from=":4_1" to="4-3" fromLane="0" toLane="0" via=":4_4_0" dir="l" state="m"/>
    <connection from=":4_4" to="4-3" fromLane="0" toLane="0" dir="l" state="M"/>
    <connection from=":4_2" to="4-1" fromLane="0" toLane="0" dir="r" state="M"/>
    <connection from=":4_3" to="4-3" fromLane="0" toLane="0" dir="s" state="M"/>
    <connection from=":5_0" to="5-0" fromLane="0" toLane="0" dir="s" state="M"/>
    <connection from=":5_1" to="5-4" fromLane="0" toLane="0" dir="l" state="M"/>
    <connection from=":7_0" to="7-4" fromLane="0" toLane="0" dir="r" state="M"/>
    <connection from=":7_1" to="7-8" fromLane="0" toLane="0" dir="s" state="M"/>
    <connection from=":8_0" to="8-3" fromLane="0" toLane="0" dir="r" state="M"/>

</net>
