<?xml version="1.0" encoding="UTF-8"?>

<!-- generated on Fri Dec 11 09:58:48 2020 by Eclipse SUMO polyconvert Version 1.8.0
<configuration xmlns:xsi="http://www.w3.org/2001/XMLSchema-instance" xsi:noNamespaceSchemaLocation="http://sumo.dlr.de/xsd/polyconvertConfiguration.xsd">

    <input>
        <net-file value="osm.net.xml"/>
        <osm-files value="osm_bbox.osm.xml"/>
        <osm.keep-full-type value="true"/>
        <type-file value="/usr/local/opt/sumo/share/sumo/data/typemap/osmPolyconvert.typ.xml"/>
    </input>

    <output>
        <output-file value="osm.poly.xml"/>
    </output>

    <processing>
        <poi-layer-offset value="5"/>
    </processing>

    <report>
        <verbose value="true"/>
    </report>

</configuration>
-->

<additional xmlns:xsi="http://www.w3.org/2001/XMLSchema-instance" xsi:noNamespaceSchemaLocation="http://sumo.dlr.de/xsd/additional_file.xsd">
    <location netOffset="-383652.77,-3768578.73" convBoundary="0.00,-66.49,3294.09,2252.91" origBoundary="-118.260870,34.050990,-118.225209,34.071950" projParameter="+proj=utm +zone=11 +ellps=WGS84 +datum=WGS84 +units=m +no_defs"/>

    <poly id="161624113" type="landuse.construction" color="194,194,130" fill="1" layer="-3.00" shape="1917.248249,709.250606 1852.353422,625.261561 1830.344598,640.256713 1810.947142,633.105749 1793.454797,668.852004 1831.416950,687.566932 1848.865885,697.702734 1865.879418,712.280053 1879.817480,725.963089 1890.460016,738.111247 1917.248249,709.250606"/>
    <poly id="161624114" type="landuse.construction" color="194,194,130" fill="1" layer="-3.00" shape="1826.072841,785.760648 1843.359635,774.172081 1838.150365,760.971011 1863.343964,748.299520 1847.694790,731.287927 1831.716549,720.635215 1803.272159,702.747495 1739.959287,667.039197 1732.091049,672.058912 1826.072841,785.760648"/>
    <poly id="161624168" type="amenity.school" color="237,199,199" fill="1" layer="-1.00" shape="1292.372536,1345.712912 1318.336854,1320.731054 1349.699619,1292.611415 1403.811173,1397.578633 1405.027821,1402.743101 1405.921330,1407.900414 1404.922968,1415.354330 1400.965551,1426.149267 1390.276418,1420.778546 1345.675585,1395.658368 1320.791304,1378.227822 1292.372536,1345.712912"/>
    <poly id="161624559" type="leisure.pitch" color="207,245,201" fill="1" layer="-2.00" shape="739.399857,1410.662265 755.233501,1409.492359 765.570644,1404.929531 776.400035,1399.861611 790.639133,1389.827741 798.513451,1377.853329 806.183126,1364.994184 809.481129,1351.656214 811.308383,1338.813144 809.167424,1326.029740 805.555834,1313.752326 800.562096,1302.423441 793.926181,1294.175661 785.400932,1285.407580 776.508429,1279.061748 696.272577,1325.926268 739.399857,1410.662265"/>
    <poly id="161624559#1" type="sport.baseball" color="79,230,125" fill="1" layer="-2.00" shape="739.399857,1410.662265 755.233501,1409.492359 765.570644,1404.929531 776.400035,1399.861611 790.639133,1389.827741 798.513451,1377.853329 806.183126,1364.994184 809.481129,1351.656214 811.308383,1338.813144 809.167424,1326.029740 805.555834,1313.752326 800.562096,1302.423441 793.926181,1294.175661 785.400932,1285.407580 776.508429,1279.061748 696.272577,1325.926268 739.399857,1410.662265"/>
    <poly id="173101329" type="natural.water" color="181,209,209" fill="1" layer="-4.00" shape="1076.124785,691.446835 1101.800197,723.595397 1107.696536,730.987357 1113.630190,738.412136 1130.690615,759.763925 1122.572165,766.184627 1081.733465,798.501978 1073.706561,804.855064 1067.800673,809.529763 1064.664839,812.007979 1046.407840,826.460134 1038.083890,816.047964 1018.895250,792.016240 1000.100241,768.478818 957.560691,715.231683 956.060821,713.353532 953.792218,710.508808 951.101786,707.136894 945.608539,700.261356 934.996890,686.971509 928.406838,678.723070 963.558973,650.899694 1004.754513,618.300224 1012.269567,612.352599 1029.883509,634.396163 1034.101891,639.679190 1040.541901,647.740994 1066.911218,680.757146 1050.454392,693.734436 1017.390963,652.260380 966.649944,692.329498 1040.970140,785.580231 1091.710937,745.511502 1058.141626,703.400238 1075.037391,690.084885 1076.124785,691.446835"/>
    <poly id="173105830" type="amenity.school" color="237,199,199" fill="1" layer="-1.00" shape="541.945608,1177.030977 501.601835,1198.232165 455.973913,1111.553738 432.028346,1089.588963 420.290966,1089.134218 419.603866,1077.530813 383.930038,1013.044714 464.832089,969.962408 503.445945,945.366436 533.857769,921.825046 584.833352,879.299576 593.706447,875.741598 604.337575,878.550244 725.214617,1101.841515 786.993803,1213.465716 808.099947,1238.826550 830.378308,1262.686945 788.803902,1284.412126 810.624609,1323.671792 832.487617,1330.202707 800.188757,1385.773670 754.203484,1447.479109 746.512130,1449.514165 741.019029,1445.644294 600.684856,1186.635813 600.352348,1175.327499 593.228077,1159.644062 583.944873,1153.824451 568.080613,1152.532894 558.226421,1156.602020 548.707264,1163.151336 541.945608,1177.030977"/>
    <poly id="204623300" type="amenity.parking" color="184,184,179" fill="1" layer="-1.00" shape="1695.269150,1921.188999 1715.477246,1943.612559 1717.443373,1942.113633 1720.595614,1941.764806 1722.913279,1944.132210 1723.063282,1946.603578 1718.789184,1951.091714 1727.464923,1960.213659 1762.386691,1927.327529 1753.106637,1914.042849 1773.631214,1895.649504 1782.443680,1905.390908 1825.588127,1868.601153 1804.246675,1823.510974 1802.169357,1819.654501 1756.945155,1862.281053 1767.831045,1871.753275 1723.673005,1912.459487 1717.023974,1905.309221 1715.112403,1903.702133 1695.269150,1921.188999"/>
    <poly id="205693536" type="building.residential" color="255,230,230" fill="1" layer="-1.00" shape="1642.439038,1028.055738 1616.576387,1037.996634 1619.433499,1045.237295 1643.792618,1036.900622 1642.439038,1028.055738"/>
    <poly id="205693537" type="building.commercial" color="255,230,230" fill="1" layer="-1.00" shape="1619.817335,1027.454509 1619.512572,1026.681876 1616.444371,1027.894765 1616.035805,1028.454258 1613.749240,1029.424745 1616.799897,1036.640873 1622.688997,1034.373369 1623.081602,1034.778947 1627.729776,1032.936879 1627.539805,1032.495567 1633.297548,1030.052219 1633.211927,1029.842539 1633.928150,1029.534391 1634.194244,1030.163317 1642.100796,1026.806618 1638.689482,1018.774167 1630.939008,1022.062429 1633.048895,1027.060797 1630.054525,1028.272784 1629.275376,1026.441225 1628.733560,1026.669621 1627.735809,1024.319464 1619.817335,1027.454509"/>
    <poly id="205693539" type="amenity.parking" color="184,184,179" fill="1" layer="-1.00" shape="1639.944317,998.984504 1643.002458,1016.692189 1639.577354,1018.918645 1618.818105,1026.501778 1614.176070,1016.698719 1639.944317,998.984504"/>
    <poly id="206783152" type="leisure.garden" color="207,245,201" fill="1" layer="-2.00" shape="1489.662450,692.350925 1522.014714,661.125690 1502.357238,637.930518 1494.581760,645.256136 1500.013549,653.940482 1485.535029,662.656339 1495.675271,684.303679 1487.828406,690.310401 1489.662450,692.350925"/>
    <poly id="206783874" type="leisure.garden" color="207,245,201" fill="1" layer="-2.00" shape="1371.059862,769.121598 1391.205219,789.926097 1393.818856,787.764886 1392.985670,783.017192 1384.946784,775.518069 1399.838275,769.658376 1401.842167,777.308627 1404.863644,777.560191 1426.242282,756.372069 1426.899891,758.072006 1432.080159,752.918389 1432.988442,754.737271 1471.666635,716.957971 1469.011776,714.217645 1461.460097,717.170901 1461.010589,718.917585 1388.179193,751.401150 1386.267615,747.542741 1383.109217,748.934250 1388.528051,755.034598 1378.448272,767.168403 1361.681977,753.243266 1360.571313,753.755868 1371.059862,769.121598"/>
    <poly id="244383220" type="leisure.pitch" color="207,245,201" fill="1" layer="-2.00" shape="682.886335,1311.406378 742.400890,1278.891644 744.801677,1272.939872 677.053594,1138.231956 613.348183,1172.284591 610.731445,1180.945148 682.886335,1311.406378"/>
    <poly id="244383220#1" type="sport.baseball" color="79,230,125" fill="1" layer="-2.00" shape="682.886335,1311.406378 742.400890,1278.891644 744.801677,1272.939872 677.053594,1138.231956 613.348183,1172.284591 610.731445,1180.945148 682.886335,1311.406378"/>
    <poly id="244383221" type="leisure.pitch" color="207,245,201" fill="1" layer="-2.00" shape="747.266357,1231.508572 770.633674,1219.155865 714.909432,1116.574038 690.065304,1129.699128 747.266357,1231.508572"/>
    <poly id="244383221#1" type="sport.basketball" color="79,230,125" fill="1" layer="-2.00" shape="747.266357,1231.508572 770.633674,1219.155865 714.909432,1116.574038 690.065304,1129.699128 747.266357,1231.508572"/>
    <poly id="24907830" type="amenity.theatre" color="237,199,199" fill="1" layer="-1.00" shape="1200.833740,709.011729 1193.957829,710.603914 1185.508158,709.553570 1178.902682,706.074088 1174.114628,700.997579 1173.262207,699.222401 1171.301813,695.153907 1170.319575,688.034670 1171.149342,682.656723 1174.145063,676.254201 1178.399438,671.632994 1184.853081,667.960929 1191.003554,666.677032 1197.129117,667.134660 1203.788803,669.759523 1206.773712,672.307213 1209.469534,674.614438 1213.242151,681.200572 1214.537478,688.260541 1213.701535,694.647799 1210.651230,701.117516 1206.350842,705.750360 1200.833740,709.011729"/>
    <poly id="24907830#1" type="building.yes" color="255,230,230" fill="1" layer="-1.00" shape="1200.833740,709.011729 1193.957829,710.603914 1185.508158,709.553570 1178.902682,706.074088 1174.114628,700.997579 1173.262207,699.222401 1171.301813,695.153907 1170.319575,688.034670 1171.149342,682.656723 1174.145063,676.254201 1178.399438,671.632994 1184.853081,667.960929 1191.003554,666.677032 1197.129117,667.134660 1203.788803,669.759523 1206.773712,672.307213 1209.469534,674.614438 1213.242151,681.200572 1214.537478,688.260541 1213.701535,694.647799 1210.651230,701.117516 1206.350842,705.750360 1200.833740,709.011729"/>
    <poly id="24907835" type="amenity.theatre" color="237,199,199" fill="1" layer="-1.00" shape="1230.792330,773.004785 1197.293662,730.570566 1235.120085,700.974386 1268.627906,743.408623 1230.792330,773.004785"/>
    <poly id="24907835#1" type="building.yes" color="255,230,230" fill="1" layer="-1.00" shape="1230.792330,773.004785 1197.293662,730.570566 1235.120085,700.974386 1268.627906,743.408623 1230.792330,773.004785"/>
    <poly id="259864118" type="leisure.park" color="207,245,201" fill="1" layer="-2.00" shape="1780.032534,1315.215280 1779.999430,1317.810866 1787.574006,1332.746590 1817.479506,1319.063929 1859.167693,1413.082702 1860.765267,1412.386800 1863.414436,1418.487726 1885.525050,1408.992232 1834.428730,1291.908296 1780.032534,1315.215280"/>
    <poly id="30428242" type="building.office" color="255,230,230" fill="1" layer="-1.00" shape="978.160011,693.031710 1044.615810,775.720562 1082.389622,745.647492 1048.337092,703.275988 1015.933966,662.958381 978.160011,693.031710"/>
    <poly id="319143484" type="natural.scrub" color="140,196,107" fill="1" layer="-4.00" shape="1083.823393,683.145828 1110.537602,716.457328 1112.308880,718.642726 1114.585985,721.431929 1116.602909,724.080132 1114.554628,725.668901 1118.078043,729.984479 1124.943069,724.477407 1152.271428,758.214053 1158.055380,753.374539 1126.495826,714.809679 1120.168554,719.755657 1116.514031,715.286412 1087.709179,680.092846 1083.823393,683.145828"/>
    <poly id="319143486" type="natural.scrub" color="140,196,107" fill="1" layer="-4.00" shape="1053.678724,637.277428 1049.975487,640.161836 1076.373968,673.299654 1080.021958,670.427021 1053.678724,637.277428"/>
    <poly id="319143487" type="leisure.garden" color="207,245,201" fill="1" layer="-2.00" shape="1049.975487,640.161836 1043.274942,645.533865 1040.541901,647.740994 1066.911218,680.757146 1076.373968,673.299654 1049.975487,640.161836"/>
    <poly id="319143488" type="leisure.garden" color="207,245,201" fill="1" layer="-2.00" shape="1110.537602,716.457328 1103.480928,722.144198 1101.800197,723.595397 1076.124785,691.446835 1075.037391,690.084885 1083.823393,683.145828 1110.537602,716.457328"/>
    <poly id="319143490" type="amenity.parking" color="184,184,179" fill="1" layer="-1.00" shape="951.101786,707.136894 933.660594,721.124579 909.509821,740.484539 864.915837,685.355345 863.556826,683.675114 893.359475,659.998234 895.407329,658.376149 896.979730,657.125868 900.509998,654.443143 902.722356,652.685962 936.683372,625.586848 939.005276,623.728522 942.479243,620.968868 944.655105,619.245415 978.316126,592.505027 986.351979,586.118486 1005.468137,570.934852 1045.916947,621.512736 1036.753454,628.534071 1041.196455,634.069441 1039.084508,635.736638 1034.101891,639.679190 1029.883509,634.396163 1012.269567,612.352599 1004.754513,618.300224 963.558973,650.899694 928.406838,678.723070 934.996890,686.971509 945.608539,700.261356 951.101786,707.136894"/>
    <poly id="319143490#1" type="building.garage" color="255,230,230" fill="1" layer="-1.00" shape="951.101786,707.136894 933.660594,721.124579 909.509821,740.484539 864.915837,685.355345 863.556826,683.675114 893.359475,659.998234 895.407329,658.376149 896.979730,657.125868 900.509998,654.443143 902.722356,652.685962 936.683372,625.586848 939.005276,623.728522 942.479243,620.968868 944.655105,619.245415 978.316126,592.505027 986.351979,586.118486 1005.468137,570.934852 1045.916947,621.512736 1036.753454,628.534071 1041.196455,634.069441 1039.084508,635.736638 1034.101891,639.679190 1029.883509,634.396163 1012.269567,612.352599 1004.754513,618.300224 963.558973,650.899694 928.406838,678.723070 934.996890,686.971509 945.608539,700.261356 951.101786,707.136894"/>
    <poly id="319143491" type="amenity.parking" color="184,184,179" fill="1" layer="-1.00" shape="1073.706561,804.855064 1107.336684,846.688366 1128.499383,829.805305 1131.790364,827.181040 1152.806836,810.410727 1156.225821,807.685094 1159.361409,805.184731 1177.663002,790.588082 1158.066050,765.596192 1156.669103,763.827660 1153.705970,760.037578 1152.271428,758.214053 1124.943069,724.477407 1118.078043,729.984479 1114.554628,725.668901 1111.902763,727.719752 1107.696536,730.987357 1113.630190,738.412136 1130.690615,759.763925 1122.572165,766.184627 1081.733465,798.501978 1073.706561,804.855064"/>
    <poly id="319143491#1" type="building.garage" color="255,230,230" fill="1" layer="-1.00" shape="1073.706561,804.855064 1107.336684,846.688366 1128.499383,829.805305 1131.790364,827.181040 1152.806836,810.410727 1156.225821,807.685094 1159.361409,805.184731 1177.663002,790.588082 1158.066050,765.596192 1156.669103,763.827660 1153.705970,760.037578 1152.271428,758.214053 1124.943069,724.477407 1118.078043,729.984479 1114.554628,725.668901 1111.902763,727.719752 1107.696536,730.987357 1113.630190,738.412136 1130.690615,759.763925 1122.572165,766.184627 1081.733465,798.501978 1073.706561,804.855064"/>
    <poly id="319147920" type="natural.scrub" color="140,196,107" fill="1" layer="-4.00" shape="1022.406742,808.198822 1010.797174,802.362850 989.574946,788.681336 979.254542,784.859220 935.092672,756.718849 933.460819,759.145451 921.821025,751.602008 921.337634,746.794616 922.986201,742.715315 925.764008,738.134223 931.802643,731.483693 956.060821,713.353532 957.560691,715.231683 936.507411,732.002883 962.363458,763.793976 971.071195,768.589572 986.829547,780.053161 998.849626,783.976514 1005.683684,787.275630 1010.306780,790.934480 1014.634877,797.646839 1022.406742,808.198822"/>
    <poly id="319147921" type="natural.scrub" color="140,196,107" fill="1" layer="-4.00" shape="1019.965383,800.276720 1018.353077,795.993282 1018.081010,793.368145 1018.895250,792.016240 1038.083890,816.047964 1030.548055,811.969969 1019.965383,800.276720"/>
    <poly id="319147922" type="natural.scrub" color="140,196,107" fill="1" layer="-4.00" shape="912.022732,743.681163 918.197344,737.583488 933.054399,724.392614 933.545472,723.033562 933.660594,721.124579 909.509821,740.484539 912.022732,743.681163"/>
    <poly id="319147923" type="natural.scrub" color="140,196,107" fill="1" layer="-4.00" shape="887.471787,648.048076 881.595661,646.855621 861.507365,663.282465 864.677357,667.369375 884.164924,650.883341 886.090469,651.336684 893.359475,659.998234 895.407329,658.376149 887.471787,648.048076"/>
    <poly id="319147944" type="landuse.industrial" color="209,209,204" fill="1" layer="-3.00" shape="864.677357,667.369375 861.507365,663.282465 851.810501,671.208847 850.750204,672.064701 849.308079,678.681228 858.834476,690.021230 864.915837,685.355345 863.556826,683.675114 893.359475,659.998234 886.090469,651.336684 884.164924,650.883341 864.677357,667.369375"/>
    <poly id="319147945" type="landuse.grass" color="194,194,130" fill="1" layer="-3.00" shape="998.849626,783.976514 986.829547,780.053161 1000.100241,768.478818 1018.895250,792.016240 1018.081010,793.368145 1018.353077,795.993282 1019.965383,800.276720 1030.548055,811.969969 1038.083890,816.047964 1036.065497,817.813835 1034.083616,819.545990 1022.406742,808.198822 1014.634877,797.646839 1010.306780,790.934480 1005.683684,787.275630 998.849626,783.976514"/>
    <poly id="319147946" type="landuse.grass" color="194,194,130" fill="1" layer="-3.00" shape="933.460819,759.145451 1042.842154,830.019393 1049.149749,831.029224 1051.044929,833.534723 1056.936940,829.237261 1066.758290,820.167241 1067.482045,817.452308 1066.947625,815.262905 1064.664839,812.007979 1046.407840,826.460134 1038.083890,816.047964 1036.065497,817.813835 1034.083616,819.545990 1022.406742,808.198822 1010.797174,802.362850 989.574946,788.681336 979.254542,784.859220 935.092672,756.718849 933.460819,759.145451"/>
    <poly id="319147947" type="landuse.grass" color="194,194,130" fill="1" layer="-3.00" shape="909.509821,740.484539 912.022732,743.681163 904.964233,742.414429 899.308346,738.091735 888.740888,727.662762 858.834476,690.021230 864.915837,685.355345 909.509821,740.484539"/>
    <poly id="319149569" type="natural.sand" color="140,196,107" fill="1" layer="-4.00" shape="1085.058796,864.461248 1105.317659,889.988345 1067.028496,870.259968 1038.517379,855.314320 1012.151305,839.155857 971.382836,813.724327 938.244901,793.334604 909.711371,776.592932 885.132761,759.448073 861.971992,740.500348 845.067518,722.895721 822.277268,694.261495 837.728742,682.127889 872.905192,721.967366 891.045769,742.529193 897.966591,749.143250 904.273270,753.846154 914.290114,758.503695 948.404061,780.190094 1015.802339,823.695378 1055.733201,850.091111 1066.974868,856.042534 1080.491367,862.332180 1085.058796,864.461248"/>
    <poly id="319149570" type="natural.scrub" color="140,196,107" fill="1" layer="-4.00" shape="902.722356,652.685962 894.390903,642.440358 893.578356,637.892076 922.576088,614.801851 928.696406,615.580996 936.683372,625.586848 902.722356,652.685962"/>
    <poly id="319152719" type="natural.scrub" color="140,196,107" fill="1" layer="-4.00" shape="1177.912110,813.276301 1180.099768,818.573074 1181.815532,819.993913 1186.148198,821.039021 1188.880015,821.759852 1191.956529,823.496809 1194.609580,825.327657 1196.753941,827.075987 1205.475084,818.607337 1205.487004,812.773564 1195.589549,801.238127 1190.507321,802.309363 1186.884499,804.216769 1181.926597,808.669110 1177.912110,813.276301"/>
    <poly id="319152720" type="natural.scrub" color="140,196,107" fill="1" layer="-4.00" shape="1158.066050,765.596192 1162.870556,762.188223 1165.168645,762.160183 1186.885651,789.177975 1185.837963,793.338620 1187.297205,794.917857 1176.368344,804.012348 1172.263624,808.032844 1170.328675,809.830939 1167.709710,810.794500 1165.245399,810.059320 1162.502211,808.407028 1159.361409,805.184731 1177.663002,790.588082 1158.066050,765.596192"/>
    <poly id="319152721" type="natural.scrub" color="140,196,107" fill="1" layer="-4.00" shape="1129.915674,861.141003 1128.153882,864.267861 1127.607989,868.699653 1128.986096,873.462860 1131.331342,878.813152 1133.906258,883.317759 1135.850690,885.323598 1140.320634,887.786599 1134.807420,888.330780 1125.184661,876.614614 1118.742225,870.604540 1112.338115,866.978472 1103.399813,862.185565 1067.179440,844.827487 1064.852681,841.750547 1063.982083,839.243623 1064.216375,838.020801 1064.545553,836.253383 1067.030615,832.640787 1069.645388,830.579284 1072.399099,830.068764 1067.371190,840.876908 1085.960428,849.855072 1087.009644,847.335797 1099.933983,853.510704 1102.975707,856.933822 1107.214378,860.109426 1111.804186,862.559860 1118.534669,863.431488 1125.369589,862.272275 1129.915674,861.141003"/>
    <poly id="319152737" type="landuse.grass" color="194,194,130" fill="1" layer="-3.00" shape="1152.806836,810.410727 1159.433381,818.647778 1159.809907,821.515636 1159.009396,825.506910 1151.274035,838.355433 1148.578107,839.819013 1144.759384,840.043064 1142.115664,838.977364 1139.626702,836.978169 1131.790364,827.181040 1152.806836,810.410727"/>
    <poly id="319152738" type="landuse.grass" color="194,194,130" fill="1" layer="-3.00" shape="1129.915674,861.141003 1134.003769,861.811993 1140.160607,864.842204 1145.328512,865.500020 1148.209936,864.865966 1160.797978,854.076519 1165.508260,846.732554 1169.586586,836.767843 1170.451580,828.982815 1170.513247,824.202037 1172.620960,819.163393 1177.912110,813.276301 1180.099768,818.573074 1181.815532,819.993913 1186.148198,821.039021 1188.880015,821.759852 1191.956529,823.496809 1194.609580,825.327657 1196.753941,827.075987 1162.459732,862.418516 1140.320634,887.786599 1135.850690,885.323598 1133.906258,883.317759 1131.331342,878.813152 1128.986096,873.462860 1127.607989,868.699653 1128.153882,864.267861 1129.915674,861.141003"/>
    <poly id="324151335" type="leisure.swimming_pool" color="207,245,201" fill="1" layer="-2.00" shape="1253.843200,1148.659962 1258.769834,1153.768086 1246.103438,1166.432677 1240.516380,1161.665330 1253.843200,1148.659962"/>
    <poly id="324151336" type="landuse.residential" color="235,235,227" fill="1" layer="-3.00" shape="1251.810011,1091.679333 1313.519757,1222.361144 1231.844703,1308.876163 1201.365533,1255.048416 1198.097213,1247.413626 1194.060589,1232.790070 1192.448468,1223.970568 1192.293968,1211.307041 1194.110502,1195.270120 1198.956080,1180.870921 1217.475737,1147.129363 1251.810011,1091.679333"/>
    <poly id="368377387" type="landuse.residential" color="235,235,227" fill="1" layer="-3.00" shape="1598.016652,1222.702171 1595.198015,1312.004161 1549.417667,1327.255836 1532.417314,1301.577307 1526.808964,1290.488450 1522.966263,1279.622107 1518.544384,1265.912544 1515.724035,1254.867408 1513.495382,1238.591430 1512.339967,1218.731242 1595.782250,1220.367052 1598.016652,1222.702171"/>
    <poly id="368377388" type="landuse.residential" color="235,235,227" fill="1" layer="-3.00" shape="1422.388320,1373.086292 1535.873245,1333.764375 1521.421154,1308.908839 1503.583625,1263.743374 1498.382243,1223.902901 1389.820251,1312.850901 1422.388320,1373.086292"/>
    <poly id="368377389" type="landuse.residential" color="235,235,227" fill="1" layer="-3.00" shape="1419.184424,1271.425011 1495.073433,1210.645607 1503.920009,1162.427207 1507.308883,1117.779833 1497.912176,1088.171523 1491.876845,1076.899340 1454.251611,1117.649170 1486.213601,1160.679635 1397.619730,1243.129467 1419.184424,1271.425011"/>
    <poly id="377712808" type="building.apartments" color="255,230,230" fill="1" layer="-1.00" shape="871.594608,1923.768619 871.631251,1922.237670 873.357729,1922.283087 873.501450,1916.680585 871.848796,1916.634265 871.897246,1914.559734 857.780882,1914.200141 857.674896,1918.360406 856.400868,1918.331636 856.342922,1920.384103 856.268828,1923.379466 871.594608,1923.768619"/>
    <poly id="385477855" type="aeroway.helipad" color="grey" fill="1" layer="-2.00" shape="824.166676,829.044160 840.329493,825.275216 836.618990,809.450024 820.446918,813.219086 824.166676,829.044160"/>
    <poly id="385477856" type="aeroway.helipad" color="grey" fill="1" layer="-2.00" shape="881.108498,864.369636 897.271408,860.611877 893.561013,844.786664 877.388983,848.555630 881.108498,864.369636"/>
    <poly id="385477858" type="landuse.commercial" color="209,209,204" fill="1" layer="-3.00" shape="671.461053,789.568521 523.556365,622.383881 426.408480,511.650154 1153.378823,-66.492040 1385.085319,222.897336 671.461053,789.568521"/>
    <poly id="385477859" type="landuse.commercial" color="209,209,204" fill="1" layer="-3.00" shape="671.461053,789.568521 727.955091,850.817248 772.926034,896.769296 890.061933,1006.984569 957.981521,1073.606847 1059.622770,1181.396147 1153.674282,1278.576708 1214.359500,1342.649455 1547.055469,994.912290 1568.437867,973.291900 1879.149015,760.662322 1860.547303,733.095069 1836.453433,712.392954 1743.979775,661.378586 1727.905919,648.952720 1678.365458,590.508400 1759.229511,513.889228 2005.155960,319.363449 2064.026600,285.401362 2088.062637,270.770443 2082.933854,223.021381 2071.723550,-38.146083 2073.230932,-56.995980 1823.037515,199.187003 1672.291040,-15.281600 1582.917084,63.304741 1385.085319,222.897336 671.461053,789.568521"/>
    <poly id="385477860" type="landuse.commercial" color="209,209,204" fill="1" layer="-3.00" shape="2094.781021,314.862591 2171.883971,706.100937 2123.088563,718.890771 2094.150829,721.969218 1996.239298,717.986552 1960.711955,722.675723 1921.261166,734.943042 1890.977086,752.589188 1864.559918,722.976220 1841.049952,703.231887 1755.201864,655.852369 1734.194038,639.992870 1702.575328,600.184748 2068.911132,331.267992 2094.781021,314.862591"/>
    <poly id="385477875" type="amenity.cafe" color="237,199,199" fill="1" layer="-1.00" shape="1142.458939,683.306245 1149.367454,677.576852 1147.475249,675.315290 1140.566733,681.044684 1142.458939,683.306245"/>
    <poly id="385477875#1" type="building.yes" color="255,230,230" fill="1" layer="-1.00" shape="1142.458939,683.306245 1149.367454,677.576852 1147.475249,675.315290 1140.566733,681.044684 1142.458939,683.306245"/>
    <poly id="386543957" type="building.yes" color="255,230,230" fill="1" layer="-1.00" shape="1550.337068,895.878289 1565.294354,912.897817 1614.000403,870.106236 1614.904521,869.307819 1599.956491,852.288102 1584.329977,866.019602 1581.973625,863.530699 1577.716785,867.197966 1579.973504,869.843346 1550.337068,895.878289"/>
    <poly id="386543958" type="building.yes" color="255,230,230" fill="1" layer="-1.00" shape="1485.392782,896.002874 1543.874766,962.588798 1562.295760,946.405503 1530.097082,909.743625 1532.498714,907.607212 1528.196803,903.012604 1525.941083,905.003066 1503.785590,879.775449 1496.169158,886.500252 1493.146287,889.165488 1485.392782,896.002874"/>
    <poly id="386543960" type="building.yes" color="255,230,230" fill="1" layer="-1.00" shape="1581.561900,791.702349 1583.416925,793.953355 1587.829080,790.151118 1585.899953,787.878831 1621.892753,756.199327 1605.718953,737.830359 1557.479143,780.305745 1573.643743,798.674744 1574.648307,797.786378 1581.561900,791.702349"/>
    <poly id="386543961" type="leisure.swimming_pool" color="207,245,201" fill="1" layer="-2.00" shape="1703.740524,813.186242 1721.010647,797.959954 1704.792718,779.735538 1685.029405,797.165881 1687.237942,799.645514 1689.731257,797.452578 1703.740524,813.186242"/>
    <poly id="386543961#1" type="sport.swimming" color="79,230,125" fill="1" layer="-2.00" shape="1703.740524,813.186242 1721.010647,797.959954 1704.792718,779.735538 1685.029405,797.165881 1687.237942,799.645514 1689.731257,797.452578 1703.740524,813.186242"/>
    <poly id="386543963" type="building.yes" color="255,230,230" fill="1" layer="-1.00" shape="1532.177443,870.568742 1530.538796,873.206039 1530.596195,878.684063 1532.060914,882.237399 1533.996453,885.796099 1537.605432,889.578438 1538.804622,890.273647 1541.908117,891.200778 1545.722718,891.398378 1547.873243,891.383315 1550.728477,890.871699 1554.511254,888.452323 1557.820979,885.084916 1559.456799,882.214758 1560.130887,877.681625 1559.605185,873.163081 1557.420931,868.886515 1554.777255,866.301298 1551.425030,864.656303 1547.844577,863.978960 1543.550049,863.787197 1538.085052,865.262159 1534.293041,867.681653 1532.177443,870.568742"/>
    <poly id="386543964" type="landuse.grass" color="194,194,130" fill="1" layer="-3.00" shape="1625.536011,834.199085 1707.807017,762.674980 1671.077504,720.810743 1588.806383,792.335162 1625.536011,834.199085"/>
    <poly id="386543965" type="building.yes" color="255,230,230" fill="1" layer="-1.00" shape="1640.241735,876.097838 1689.105607,833.338021 1666.584135,807.593226 1665.250680,808.762840 1643.768714,827.556108 1641.560575,825.109752 1637.132114,829.089611 1639.211178,831.548625 1617.720222,850.353157 1639.586532,875.351644 1640.241735,876.097838"/>
    <poly id="39550465" type="building.cathedral" color="255,230,230" fill="1" layer="-1.00" shape="1462.802144,711.398583 1463.727417,707.028743 1447.079127,716.447592 1445.746398,713.125563 1446.764914,712.625183 1441.782461,698.390130 1437.136716,700.442974 1431.947218,694.983058 1433.297451,694.434276 1424.745317,675.107767 1417.246097,680.855234 1413.741571,678.080904 1410.551850,680.692743 1407.106721,674.457445 1407.499128,674.086680 1407.115594,673.669909 1408.201061,672.603093 1407.266515,671.660685 1407.786378,671.144191 1405.038788,668.371739 1403.440585,666.749799 1403.093920,667.086736 1402.149873,666.122263 1401.234498,666.754479 1400.893011,666.758637 1400.638418,666.318115 1346.547474,722.485022 1347.208925,723.741286 1341.007517,728.419406 1360.571313,753.755868 1361.681977,753.243266 1378.448272,767.168403 1388.528051,755.034598 1383.109217,748.934250 1386.267615,747.542741 1388.179193,751.401150 1461.010589,718.917585 1461.460097,717.170901 1462.802144,711.398583"/>