<?xml version="1.0" encoding="UTF-8"?>

<!-- generated on Fri Dec 11 09:58:46 2020 by Eclipse SUMO netconvert Version 1.8.0
<configuration xmlns:xsi="http://www.w3.org/2001/XMLSchema-instance" xsi:noNamespaceSchemaLocation="http://sumo.dlr.de/xsd/netconvertConfiguration.xsd">

    <input>
        <type-files value="/usr/local/opt/sumo/share/sumo/data/typemap/osmNetconvert.typ.xml"/>
        <osm-files value="osm_bbox.osm.xml"/>
    </input>

    <output>
        <output-file value="osm.net.xml"/>
        <output.street-names value="true"/>
        <output.original-names value="true"/>
    </output>

    <projection>
        <proj.utm value="true"/>
    </projection>

    <processing>
        <geometry.remove value="true"/>
        <roundabouts.guess value="true"/>
    </processing>

    <tls_building>
        <tls.discard-simple value="true"/>
        <tls.join value="true"/>
        <tls.guess-signals value="true"/>
        <tls.default-type value="actuated"/>
    </tls_building>

    <ramp_guessing>
        <ramps.guess value="true"/>
    </ramp_guessing>

    <junctions>
        <junctions.join value="true"/>
        <junctions.corner-detail value="5"/>
    </junctions>

    <report>
        <verbose value="true"/>
        <aggregate-warnings value="5"/>
    </report>

</configuration>
-->

<net version="1.6" junctionCornerDetail="5" limitTurnSpeed="5.50" xmlns:xsi="http://www.w3.org/2001/XMLSchema-instance" xsi:noNamespaceSchemaLocation="http://sumo.dlr.de/xsd/net_file.xsd">

    <location netOffset="-383652.77,-3768578.73" convBoundary="0.00,0.00,2782.83,2252.91" origBoundary="-118.260870,34.051766,-118.230458,34.071850" projParameter="+proj=utm +zone=11 +ellps=WGS84 +datum=WGS84 +units=m +no_defs"/>

    <type id="highway.bridleway" priority="1" numLanes="1" speed="2.78" allow="pedestrian" oneway="1" width="2.00"/>
    <type id="highway.bus_guideway" priority="1" numLanes="1" speed="27.78" allow="bus" oneway="1"/>
    <type id="highway.cycleway" priority="1" numLanes="1" speed="8.33" allow="bicycle" oneway="0" width="1.00"/>
    <type id="highway.footway" priority="1" numLanes="1" speed="2.78" allow="pedestrian" oneway="1" width="2.00"/>
    <type id="highway.ford" priority="1" numLanes="1" speed="2.78" allow="army" oneway="0"/>
    <type id="highway.living_street" priority="2" numLanes="1" speed="2.78" disallow="tram rail_urban rail rail_electric rail_fast ship" oneway="0"/>
    <type id="highway.motorway" priority="14" numLanes="2" speed="39.44" allow="private emergency authority army vip passenger hov taxi bus coach delivery truck trailer motorcycle evehicle custom1 custom2" oneway="1"/>
    <type id="highway.motorway_link" priority="9" numLanes="1" speed="22.22" allow="private emergency authority army vip passenger hov taxi bus coach delivery truck trailer motorcycle evehicle custom1 custom2" oneway="1"/>
    <type id="highway.path" priority="1" numLanes="1" speed="2.78" allow="pedestrian bicycle" oneway="0" width="2.00"/>
    <type id="highway.pedestrian" priority="1" numLanes="1" speed="2.78" allow="pedestrian" oneway="1" width="2.00"/>
    <type id="highway.primary" priority="12" numLanes="2" speed="27.78" disallow="tram rail_urban rail rail_electric rail_fast ship" oneway="0"/>
    <type id="highway.primary_link" priority="7" numLanes="1" speed="22.22" disallow="tram rail_urban rail rail_electric rail_fast ship" oneway="0"/>
    <type id="highway.raceway" priority="15" numLanes="2" speed="83.33" allow="vip" oneway="0"/>
    <type id="highway.residential" priority="3" numLanes="1" speed="13.89" disallow="tram rail_urban rail rail_electric rail_fast ship" oneway="0"/>
    <type id="highway.secondary" priority="11" numLanes="1" speed="27.78" disallow="tram rail_urban rail rail_electric rail_fast ship" oneway="0"/>
    <type id="highway.secondary_link" priority="6" numLanes="1" speed="22.22" disallow="tram rail_urban rail rail_electric rail_fast ship" oneway="0"/>
    <type id="highway.service" priority="1" numLanes="1" speed="5.56" allow="pedestrian delivery bicycle" oneway="0"/>
    <type id="highway.stairs" priority="1" numLanes="1" speed="1.39" allow="pedestrian" oneway="1" width="2.00"/>
    <type id="highway.step" priority="1" numLanes="1" speed="1.39" allow="pedestrian" oneway="1" width="2.00"/>
    <type id="highway.steps" priority="1" numLanes="1" speed="1.39" allow="pedestrian" oneway="1" width="2.00"/>
    <type id="highway.tertiary" priority="10" numLanes="1" speed="22.22" disallow="tram rail_urban rail rail_electric rail_fast ship" oneway="0"/>
    <type id="highway.tertiary_link" priority="5" numLanes="1" speed="22.22" disallow="tram rail_urban rail rail_electric rail_fast ship" oneway="0"/>
    <type id="highway.track" priority="1" numLanes="1" speed="5.56" allow="pedestrian motorcycle moped bicycle" oneway="0"/>
    <type id="highway.trunk" priority="13" numLanes="2" speed="27.78" disallow="pedestrian bicycle tram rail_urban rail rail_electric rail_fast ship" oneway="0"/>
    <type id="highway.trunk_link" priority="8" numLanes="1" speed="22.22" disallow="pedestrian bicycle tram rail_urban rail rail_electric rail_fast ship" oneway="0"/>
    <type id="highway.unclassified" priority="4" numLanes="1" speed="13.89" disallow="tram rail_urban rail rail_electric rail_fast ship" oneway="0"/>
    <type id="highway.unsurfaced" priority="1" numLanes="1" speed="8.33" disallow="tram rail_urban rail rail_electric rail_fast ship" oneway="0"/>
    <type id="railway.highspeed" priority="21" numLanes="1" speed="69.44" allow="rail_fast" oneway="1"/>
    <type id="railway.light_rail" priority="19" numLanes="1" speed="27.78" allow="rail_urban" oneway="1"/>
    <type id="railway.preserved" priority="16" numLanes="1" speed="27.78" allow="rail" oneway="1"/>
    <type id="railway.rail" priority="20" numLanes="1" speed="44.44" allow="rail" oneway="1"/>
    <type id="railway.subway" priority="18" numLanes="1" speed="27.78" allow="rail_urban" oneway="1"/>
    <type id="railway.tram" priority="17" numLanes="1" speed="13.89" allow="tram" oneway="1"/>

    <edge id=":122391276_0" function="internal">
        <lane id=":122391276_0_0" index="0" disallow="tram rail_urban rail rail_electric rail_fast ship" speed="13.89" length="14.48" shape="1838.74,1758.23 1825.41,1763.88"/>
    </edge>
    <edge id=":122391276_1" function="internal">
        <lane id=":122391276_1_0" index="0" disallow="tram rail_urban rail rail_electric rail_fast ship" speed="8.04" length="5.87" shape="1838.74,1758.23 1834.95,1759.19 1833.02,1758.92"/>
    </edge>
    <edge id=":122391276_2" function="internal">
        <lane id=":122391276_2_0" index="0" disallow="tram rail_urban rail rail_electric rail_fast ship" speed="3.65" length="2.34" shape="1838.74,1758.23 1837.32,1757.97 1836.64,1757.40"/>
    </edge>
    <edge id=":122391276_9" function="internal">
        <lane id=":122391276_9_0" index="0" disallow="tram rail_urban rail rail_electric rail_fast ship" speed="8.04" length="8.30" shape="1833.02,1758.92 1831.76,1758.74 1829.16,1756.88 1827.16,1753.61"/>
    </edge>
    <edge id=":122391276_10" function="internal">
        <lane id=":122391276_10_0" index="0" disallow="tram rail_urban rail rail_electric rail_fast ship" speed="3.65" length="2.34" shape="1836.64,1757.40 1836.68,1756.51 1837.47,1755.29"/>
    </edge>
    <edge id=":122391276_3" function="internal">
        <lane id=":122391276_3_0" index="0" disallow="tram rail_urban rail rail_electric rail_fast ship" speed="6.54" length="9.01" shape="1830.10,1752.35 1831.37,1754.43 1833.03,1755.62 1835.06,1755.91 1837.47,1755.29"/>
    </edge>
    <edge id=":122391276_4" function="internal">
        <lane id=":122391276_4_0" index="0" disallow="tram rail_urban rail rail_electric rail_fast ship" speed="7.98" length="14.23" shape="1830.10,1752.35 1831.11,1756.12 1830.67,1759.30 1828.77,1761.89 1825.41,1763.88"/>
    </edge>
    <edge id=":122391276_5" function="internal">
        <lane id=":122391276_5_0" index="0" disallow="tram rail_urban rail rail_electric rail_fast ship" speed="3.65" length="4.67" shape="1830.10,1752.35 1829.84,1753.77 1829.26,1754.45 1828.37,1754.40 1827.16,1753.61"/>
    </edge>
    <edge id=":122391276_6" function="internal">
        <lane id=":122391276_6_0" index="0" disallow="tram rail_urban rail rail_electric rail_fast ship" speed="6.48" length="9.03" shape="1824.18,1760.93 1826.32,1759.66 1827.52,1758.02 1827.80,1756.00 1827.16,1753.61"/>
    </edge>
    <edge id=":122391276_7" function="internal">
        <lane id=":122391276_7_0" index="0" disallow="tram rail_urban rail rail_electric rail_fast ship" speed="13.89" length="14.43" shape="1824.18,1760.93 1837.47,1755.29"/>
    </edge>
    <edge id=":122391276_8" function="internal">
        <lane id=":122391276_8_0" index="0" disallow="tram rail_urban rail rail_electric rail_fast ship" speed="3.65" length="2.34" shape="1824.18,1760.93 1825.60,1761.21 1826.28,1761.79"/>
    </edge>
    <edge id=":122391276_11" function="internal">
        <lane id=":122391276_11_0" index="0" disallow="tram rail_urban rail rail_electric rail_fast ship" speed="3.65" length="2.34" shape="1826.28,1761.79 1826.21,1762.69 1825.41,1763.88"/>
    </edge>
    <edge id=":122391280_0" function="internal">
        <lane id=":122391280_0_0" index="0" disallow="tram rail_urban rail rail_electric rail_fast ship" speed="6.05" length="9.07" shape="1819.66,1736.12 1818.32,1733.92 1816.67,1732.87 1814.72,1732.96 1812.46,1734.20"/>
    </edge>
    <edge id=":122391280_1" function="internal">
        <lane id=":122391280_1_0" index="0" disallow="tram rail_urban rail rail_electric rail_fast ship" speed="8.82" length="13.72" shape="1819.66,1736.12 1818.38,1732.13 1818.18,1728.69 1819.07,1725.80 1821.04,1723.47"/>
    </edge>
    <edge id=":122391280_2" function="internal">
        <lane id=":122391280_2_0" index="0" disallow="tram rail_urban rail rail_electric rail_fast ship" speed="3.65" length="4.67" shape="1819.66,1736.12 1819.93,1734.70 1820.51,1734.02 1821.40,1734.07 1822.61,1734.86"/>
    </edge>
    <edge id=":122391280_3" function="internal">
        <lane id=":122391280_3_0" index="0" disallow="tram rail_urban rail rail_electric rail_fast ship" speed="7.46" length="9.57" shape="1823.07,1725.94 1821.85,1727.48 1821.37,1729.47 1821.62,1731.93 1822.61,1734.86"/>
    </edge>
    <edge id=":122391280_4" function="internal">
        <lane id=":122391280_4_0" index="0" disallow="tram rail_urban rail rail_electric rail_fast ship" speed="22.22" length="13.44" shape="1823.07,1725.94 1812.46,1734.20"/>
    </edge>
    <edge id=":122391280_5" function="internal">
        <lane id=":122391280_5_0" index="0" disallow="tram rail_urban rail rail_electric rail_fast ship" speed="3.65" length="2.34" shape="1823.07,1725.94 1821.63,1726.09 1820.82,1725.72"/>
    </edge>
    <edge id=":122391280_9" function="internal">
        <lane id=":122391280_9_0" index="0" disallow="tram rail_urban rail rail_electric rail_fast ship" speed="3.65" length="2.34" shape="1820.82,1725.72 1820.62,1724.85 1821.04,1723.47"/>
    </edge>
    <edge id=":122391280_6" function="internal">
        <lane id=":122391280_6_0" index="0" disallow="tram rail_urban rail rail_electric rail_fast ship" speed="22.22" length="13.31" shape="1810.54,1731.65 1821.04,1723.47"/>
    </edge>
    <edge id=":122391280_7" function="internal">
        <lane id=":122391280_7_0" index="0" disallow="tram rail_urban rail rail_electric rail_fast ship" speed="7.64" length="5.91" shape="1810.54,1731.65 1814.32,1729.56 1815.91,1729.49"/>
    </edge>
    <edge id=":122391280_8" function="internal">
        <lane id=":122391280_8_0" index="0" disallow="tram rail_urban rail rail_electric rail_fast ship" speed="3.65" length="2.34" shape="1810.54,1731.65 1811.98,1731.56 1812.78,1731.96"/>
    </edge>
    <edge id=":122391280_10" function="internal">
        <lane id=":122391280_10_0" index="0" disallow="tram rail_urban rail rail_electric rail_fast ship" speed="7.64" length="9.28" shape="1815.91,1729.49 1817.60,1729.41 1820.36,1731.17 1822.61,1734.86"/>
    </edge>
    <edge id=":122391280_11" function="internal">
        <lane id=":122391280_11_0" index="0" disallow="tram rail_urban rail rail_electric rail_fast ship" speed="3.65" length="2.34" shape="1812.78,1731.96 1812.94,1732.84 1812.46,1734.20"/>
    </edge>
    <edge id=":122630076_0" function="internal">
        <lane id=":122630076_0_0" index="0" disallow="tram rail_urban rail rail_electric rail_fast ship" speed="27.78" length="15.30" shape="995.16,1839.02 993.50,1843.18 991.67,1845.75 989.85,1848.33 988.26,1852.50"/>
        <lane id=":122630076_0_1" index="1" disallow="tram rail_urban rail rail_electric rail_fast ship" speed="27.78" length="15.30" shape="992.08,1838.17 990.41,1842.34 988.57,1844.92 986.76,1847.51 985.16,1851.70"/>
        <lane id=":122630076_0_2" index="2" disallow="tram rail_urban rail rail_electric rail_fast ship" speed="27.78" length="15.30" shape="989.00,1837.32 987.32,1841.50 985.48,1844.09 983.67,1846.69 982.06,1850.90"/>
    </edge>
    <edge id=":122630076_3" function="internal">
        <lane id=":122630076_3_0" index="0" disallow="tram rail_urban rail rail_electric rail_fast ship" speed="10.43" length="4.96" shape="985.91,1836.46 983.84,1839.62 982.76,1840.10"/>
    </edge>
    <edge id=":122630076_4" function="internal">
        <lane id=":122630076_4_0" index="0" disallow="tram rail_urban rail rail_electric rail_fast ship" speed="3.65" length="2.51" shape="985.91,1836.46 984.82,1837.41 983.94,1837.58 983.81,1837.46"/>
    </edge>
    <edge id=":122630076_13" function="internal">
        <lane id=":122630076_13_0" index="0" disallow="tram rail_urban rail rail_electric rail_fast ship" speed="10.43" length="17.69" shape="982.76,1840.10 979.73,1841.46 973.59,1841.99 965.42,1841.22"/>
    </edge>
    <edge id=":122630076_14" function="internal">
        <lane id=":122630076_14_0" index="0" disallow="tram rail_urban rail rail_electric rail_fast ship" speed="3.65" length="2.16" shape="983.81,1837.46 983.28,1836.98 982.83,1835.61"/>
    </edge>
    <edge id=":122630076_5" function="internal">
        <lane id=":122630076_5_0" index="0" disallow="tram rail_urban rail rail_electric rail_fast ship" speed="8.66" length="15.33" shape="965.91,1838.06 971.42,1838.57 975.56,1838.20 978.34,1836.92 979.74,1834.76"/>
    </edge>
    <edge id=":122630076_6" function="internal">
        <lane id=":122630076_6_0" index="0" disallow="tram rail_urban rail rail_electric rail_fast ship" speed="10.43" length="26.74" shape="965.91,1838.06 974.69,1839.84 981.22,1842.44 984.91,1846.25 985.16,1851.70"/>
    </edge>
    <edge id=":122630076_7" function="internal">
        <lane id=":122630076_7_0" index="0" disallow="tram rail_urban rail rail_electric rail_fast ship" speed="9.78" length="23.36" shape="965.91,1838.06 973.94,1839.95 979.31,1842.72 982.02,1846.37 982.06,1850.90"/>
    </edge>
    <edge id=":122630076_8" function="internal">
        <lane id=":122630076_8_0" index="0" disallow="tram rail_urban rail rail_electric rail_fast ship" speed="3.65" length="2.56" shape="965.91,1838.06 966.97,1839.03 967.25,1839.88 967.12,1840.07"/>
    </edge>
    <edge id=":122630076_15" function="internal">
        <lane id=":122630076_15_0" index="0" disallow="tram rail_urban rail rail_electric rail_fast ship" speed="3.65" length="2.11" shape="967.12,1840.07 966.73,1840.61 965.42,1841.22"/>
    </edge>
    <edge id=":122630076_9" function="internal">
        <lane id=":122630076_9_0" index="0" disallow="tram rail_urban rail rail_electric rail_fast ship" speed="6.30" length="9.04" shape="969.67,1847.69 969.95,1845.19 969.33,1843.28 967.82,1841.96 965.42,1841.22"/>
    </edge>
    <edge id=":122630076_10" function="internal">
        <lane id=":122630076_10_0" index="0" disallow="tram rail_urban rail rail_electric rail_fast ship" speed="27.78" length="15.48" shape="972.77,1848.49 974.38,1844.24 976.21,1841.61 978.06,1838.99 979.74,1834.76"/>
        <lane id=":122630076_10_1" index="1" disallow="tram rail_urban rail rail_electric rail_fast ship" speed="27.78" length="15.48" shape="975.87,1849.29 977.48,1845.06 979.30,1842.44 981.15,1839.82 982.83,1835.61"/>
    </edge>
    <edge id=":122630076_12" function="internal">
        <lane id=":122630076_12_0" index="0" disallow="tram rail_urban rail rail_electric rail_fast ship" speed="3.65" length="2.52" shape="978.96,1850.09 980.04,1849.13 980.91,1848.95 981.05,1849.06"/>
    </edge>
    <edge id=":122630076_16" function="internal">
        <lane id=":122630076_16_0" index="0" disallow="tram rail_urban rail rail_electric rail_fast ship" speed="3.65" length="2.16" shape="981.05,1849.06 981.59,1849.53 982.06,1850.90"/>
    </edge>
    <edge id=":122630080_0" function="internal">
        <lane id=":122630080_0_0" index="0" disallow="tram rail_urban rail rail_electric rail_fast ship" speed="6.26" length="9.05" shape="853.28,1823.76 850.76,1823.73 848.93,1824.54 847.79,1826.19 847.35,1828.67"/>
    </edge>
    <edge id=":122630080_1" function="internal">
        <lane id=":122630080_1_0" index="0" disallow="tram rail_urban rail rail_electric rail_fast ship" speed="13.89" length="15.22" shape="853.28,1823.76 838.27,1821.23"/>
    </edge>
    <edge id=":122630080_2" function="internal">
        <lane id=":122630080_2_0" index="0" disallow="tram rail_urban rail rail_electric rail_fast ship" speed="8.46" length="6.31" shape="853.28,1823.76 849.40,1822.58 847.63,1821.19"/>
    </edge>
    <edge id=":122630080_3" function="internal">
        <lane id=":122630080_3_0" index="0" disallow="tram rail_urban rail rail_electric rail_fast ship" speed="3.65" length="2.34" shape="853.28,1823.76 852.22,1822.78 851.95,1821.93"/>
    </edge>
    <edge id=":122630080_16" function="internal">
        <lane id=":122630080_16_0" index="0" disallow="tram rail_urban rail rail_electric rail_fast ship" speed="8.46" length="8.64" shape="847.63,1821.19 846.71,1820.46 845.22,1817.37 844.93,1813.34"/>
    </edge>
    <edge id=":122630080_17" function="internal">
        <lane id=":122630080_17_0" index="0" disallow="tram rail_urban rail rail_electric rail_fast ship" speed="3.65" length="2.34" shape="851.95,1821.93 852.47,1821.20 853.77,1820.60"/>
    </edge>
    <edge id=":122630080_4" function="internal">
        <lane id=":122630080_4_0" index="0" disallow="tram rail_urban rail rail_electric rail_fast ship" speed="6.97" length="10.03" shape="848.29,1813.57 848.42,1816.29 849.38,1818.37 851.17,1819.80 853.77,1820.60"/>
    </edge>
    <edge id=":122630080_5" function="internal">
        <lane id=":122630080_5_0" index="0" disallow="tram rail_urban rail rail_electric rail_fast ship" speed="13.89" length="15.13" shape="848.29,1813.57 847.35,1828.67"/>
    </edge>
    <edge id=":122630080_6" function="internal">
        <lane id=":122630080_6_0" index="0" disallow="tram rail_urban rail rail_electric rail_fast ship" speed="7.89" length="14.69" shape="848.29,1813.57 847.34,1817.55 845.36,1820.15 842.33,1821.38 838.27,1821.23"/>
    </edge>
    <edge id=":122630080_7" function="internal">
        <lane id=":122630080_7_0" index="0" disallow="tram rail_urban rail rail_electric rail_fast ship" speed="3.72" length="4.92" shape="848.29,1813.57 847.37,1814.77 846.50,1815.14 845.69,1814.66 844.93,1813.34"/>
    </edge>
    <edge id=":122630080_8" function="internal">
        <lane id=":122630080_8_0" index="0" disallow="tram rail_urban rail rail_electric rail_fast ship" speed="6.28" length="9.04" shape="838.84,1818.08 841.36,1818.17 843.21,1817.41 844.40,1815.80 844.93,1813.34"/>
    </edge>
    <edge id=":122630080_9" function="internal">
        <lane id=":122630080_9_0" index="0" disallow="tram rail_urban rail rail_electric rail_fast ship" speed="13.89" length="15.14" shape="838.84,1818.08 853.77,1820.60"/>
    </edge>
    <edge id=":122630080_10" function="internal">
        <lane id=":122630080_10_0" index="0" disallow="tram rail_urban rail rail_electric rail_fast ship" speed="8.69" length="6.06" shape="838.84,1818.08 842.68,1819.34 844.25,1820.62"/>
    </edge>
    <edge id=":122630080_11" function="internal">
        <lane id=":122630080_11_0" index="0" disallow="tram rail_urban rail rail_electric rail_fast ship" speed="3.65" length="2.34" shape="838.84,1818.08 839.88,1819.09 840.13,1819.94"/>
    </edge>
    <edge id=":122630080_18" function="internal">
        <lane id=":122630080_18_0" index="0" disallow="tram rail_urban rail rail_electric rail_fast ship" speed="8.69" length="8.98" shape="844.25,1820.62 845.37,1821.53 846.93,1824.64 847.35,1828.67"/>
    </edge>
    <edge id=":122630080_19" function="internal">
        <lane id=":122630080_19_0" index="0" disallow="tram rail_urban rail rail_electric rail_fast ship" speed="3.65" length="2.34" shape="840.13,1819.94 839.60,1820.66 838.27,1821.23"/>
    </edge>
    <edge id=":122630080_12" function="internal">
        <lane id=":122630080_12_0" index="0" disallow="tram rail_urban rail rail_electric rail_fast ship" speed="7.32" length="10.41" shape="844.15,1828.56 843.86,1825.77 842.79,1823.62 840.92,1822.10 838.27,1821.23"/>
    </edge>
    <edge id=":122630080_13" function="internal">
        <lane id=":122630080_13_0" index="0" disallow="tram rail_urban rail rail_electric rail_fast ship" speed="13.89" length="15.24" shape="844.15,1828.56 844.93,1813.34"/>
    </edge>
    <edge id=":122630080_14" function="internal">
        <lane id=":122630080_14_0" index="0" disallow="tram rail_urban rail rail_electric rail_fast ship" speed="7.80" length="14.67" shape="844.15,1828.56 844.87,1824.53 846.71,1821.86 849.68,1820.55 853.77,1820.60"/>
    </edge>
    <edge id=":122630080_15" function="internal">
        <lane id=":122630080_15_0" index="0" disallow="tram rail_urban rail rail_electric rail_fast ship" speed="3.65" length="4.67" shape="844.15,1828.56 844.99,1827.39 845.81,1827.02 846.59,1827.44 847.35,1828.67"/>
    </edge>
    <edge id=":122645236_0" function="internal">
        <lane id=":122645236_0_0" index="0" disallow="tram rail_urban rail rail_electric rail_fast ship" speed="22.22" length="14.40" shape="1931.13,1465.93 1917.93,1471.69"/>
        <lane id=":122645236_0_1" index="1" disallow="tram rail_urban rail rail_electric rail_fast ship" speed="22.22" length="14.40" shape="1929.85,1462.99 1916.65,1468.76"/>
    </edge>
    <edge id=":122645236_2" function="internal">
        <lane id=":122645236_2_0" index="0" disallow="tram rail_urban rail rail_electric rail_fast ship" speed="8.67" length="5.27" shape="1929.85,1462.99 1926.02,1463.85 1924.72,1463.49"/>
    </edge>
    <edge id=":122645236_3" function="internal">
        <lane id=":122645236_3_0" index="0" disallow="tram rail_urban rail rail_electric rail_fast ship" speed="3.65" length="2.34" shape="1929.85,1462.99 1928.43,1462.74 1927.74,1462.17"/>
    </edge>
    <edge id=":122645236_11" function="internal">
        <lane id=":122645236_11_0" index="0" disallow="tram rail_urban rail rail_electric rail_fast ship" speed="8.67" length="11.59" shape="1924.72,1463.49 1922.59,1462.89 1919.58,1460.10 1916.99,1455.50"/>
    </edge>
    <edge id=":122645236_12" function="internal">
        <lane id=":122645236_12_0" index="0" disallow="tram rail_urban rail rail_electric rail_fast ship" speed="3.65" length="2.34" shape="1927.74,1462.17 1927.79,1461.28 1928.57,1460.06"/>
    </edge>
    <edge id=":122645236_4" function="internal">
        <lane id=":122645236_4_0" index="0" disallow="tram rail_urban rail rail_electric rail_fast ship" speed="6.50" length="9.03" shape="1919.93,1454.23 1921.22,1456.34 1922.88,1457.53 1924.90,1457.79 1927.29,1457.13"/>
    </edge>
    <edge id=":122645236_5" function="internal">
        <lane id=":122645236_5_0" index="0" disallow="tram rail_urban rail rail_electric rail_fast ship" speed="8.68" length="16.85" shape="1919.93,1454.23 1921.51,1459.27 1921.49,1463.37 1919.87,1466.53 1916.65,1468.76"/>
    </edge>
    <edge id=":122645236_6" function="internal">
        <lane id=":122645236_6_0" index="0" disallow="tram rail_urban rail rail_electric rail_fast ship" speed="3.65" length="4.67" shape="1919.93,1454.23 1919.67,1455.65 1919.09,1456.33 1918.20,1456.28 1916.99,1455.50"/>
    </edge>
    <edge id=":122645236_7" function="internal">
        <lane id=":122645236_7_0" index="0" disallow="tram rail_urban rail rail_electric rail_fast ship" speed="6.52" length="9.04" shape="1914.09,1462.89 1916.20,1461.59 1917.38,1459.92 1917.65,1457.89 1916.99,1455.50"/>
    </edge>
    <edge id=":122645236_8" function="internal">
        <lane id=":122645236_8_0" index="0" disallow="tram rail_urban rail rail_electric rail_fast ship" speed="22.22" length="14.40" shape="1914.09,1462.89 1927.29,1457.13"/>
        <lane id=":122645236_8_1" index="1" disallow="tram rail_urban rail rail_electric rail_fast ship" speed="22.22" length="14.40" shape="1915.37,1465.82 1928.57,1460.06"/>
    </edge>
    <edge id=":122645236_10" function="internal">
        <lane id=":122645236_10_0" index="0" disallow="tram rail_urban rail rail_electric rail_fast ship" speed="3.65" length="2.34" shape="1915.37,1465.82 1916.79,1466.08 1917.48,1466.65"/>
    </edge>
    <edge id=":122645236_13" function="internal">
        <lane id=":122645236_13_0" index="0" disallow="tram rail_urban rail rail_electric rail_fast ship" speed="3.65" length="2.34" shape="1917.48,1466.65 1917.43,1467.54 1916.65,1468.76"/>
    </edge>
    <edge id=":122663619_0" function="internal">
        <lane id=":122663619_0_0" index="0" disallow="tram rail_urban rail rail_electric rail_fast ship" speed="6.02" length="9.07" shape="815.67,1396.62 813.68,1394.97 811.78,1394.51 809.98,1395.25 808.27,1397.19"/>
    </edge>
    <edge id=":122663619_1" function="internal">
        <lane id=":122663619_1_0" index="0" disallow="tram rail_urban rail rail_electric rail_fast ship" speed="9.75" length="16.94" shape="815.67,1396.62 812.18,1392.16 810.19,1388.16 809.70,1384.62 810.72,1381.55"/>
    </edge>
    <edge id=":122663619_2" function="internal">
        <lane id=":122663619_2_0" index="0" disallow="tram rail_urban rail rail_electric rail_fast ship" speed="3.65" length="4.67" shape="815.67,1396.62 815.46,1395.19 815.78,1394.36 816.64,1394.12 818.04,1394.48"/>
    </edge>
    <edge id=":122663619_3" function="internal">
        <lane id=":122663619_3_0" index="0" disallow="tram rail_urban rail rail_electric rail_fast ship" speed="7.79" length="10.52" shape="816.15,1384.92 815.24,1387.18 815.25,1389.52 816.19,1391.95 818.04,1394.48"/>
    </edge>
    <edge id=":122663619_4" function="internal">
        <lane id=":122663619_4_0" index="0" disallow="tram rail_urban rail rail_electric rail_fast ship" speed="27.78" length="14.54" shape="816.15,1384.92 808.27,1397.19"/>
        <lane id=":122663619_4_1" index="1" disallow="tram rail_urban rail rail_electric rail_fast ship" speed="27.78" length="14.54" shape="813.43,1383.23 805.59,1395.44"/>
    </edge>
    <edge id=":122663619_6" function="internal">
        <lane id=":122663619_6_0" index="0" disallow="tram rail_urban rail rail_electric rail_fast ship" speed="3.65" length="2.52" shape="813.43,1383.23 812.12,1383.83 811.23,1383.75 811.13,1383.59"/>
    </edge>
    <edge id=":122663619_11" function="internal">
        <lane id=":122663619_11_0" index="0" disallow="tram rail_urban rail rail_electric rail_fast ship" speed="3.65" length="2.15" shape="811.13,1383.59 810.76,1382.99 810.72,1381.55"/>
    </edge>
    <edge id=":122663619_7" function="internal">
        <lane id=":122663619_7_0" index="0" disallow="tram rail_urban rail rail_electric rail_fast ship" speed="27.78" length="14.82" shape="797.57,1390.17 800.35,1386.85 802.84,1385.05 805.30,1383.23 808.00,1379.86"/>
        <lane id=":122663619_7_1" index="1" disallow="tram rail_urban rail rail_electric rail_fast ship" speed="27.78" length="14.82" shape="800.24,1391.92 803.04,1388.58 805.54,1386.77 808.01,1384.94 810.72,1381.55"/>
    </edge>
    <edge id=":122663619_9" function="internal">
        <lane id=":122663619_9_0" index="0" disallow="tram rail_urban rail rail_electric rail_fast ship" speed="8.31" length="5.80" shape="802.92,1393.68 806.14,1390.26 807.21,1389.96"/>
    </edge>
    <edge id=":122663619_10" function="internal">
        <lane id=":122663619_10_0" index="0" disallow="tram rail_urban rail rail_electric rail_fast ship" speed="3.65" length="2.34" shape="802.92,1393.68 804.24,1393.11 805.13,1393.22"/>
    </edge>
    <edge id=":122663619_12" function="internal">
        <lane id=":122663619_12_0" index="0" disallow="tram rail_urban rail rail_electric rail_fast ship" speed="8.31" length="12.61" shape="807.21,1389.96 809.73,1389.26 813.70,1390.66 818.04,1394.48"/>
    </edge>
    <edge id=":122663619_13" function="internal">
        <lane id=":122663619_13_0" index="0" disallow="tram rail_urban rail rail_electric rail_fast ship" speed="3.65" length="2.34" shape="805.13,1393.22 805.58,1393.99 805.59,1395.44"/>
    </edge>
    <edge id=":122663624_0" function="internal">
        <lane id=":122663624_0_0" index="0" allow="pedestrian delivery bicycle" speed="4.84" length="5.28" shape="685.15,1555.49 684.07,1554.45 682.98,1554.09 681.88,1554.42 680.78,1555.42"/>
    </edge>
    <edge id=":122663624_1" function="internal">
        <lane id=":122663624_1_0" index="0" allow="pedestrian delivery bicycle" speed="9.72" length="21.10" shape="685.15,1555.49 682.41,1551.67 679.20,1546.78 676.11,1541.82 673.73,1537.76"/>
    </edge>
    <edge id=":122663624_2" function="internal">
        <lane id=":122663624_2_0" index="0" allow="pedestrian delivery bicycle" speed="9.82" length="18.18" shape="685.15,1555.49 682.90,1551.48 682.31,1547.38 683.38,1543.18 686.12,1538.87"/>
    </edge>
    <edge id=":122663624_3" function="internal">
        <lane id=":122663624_3_0" index="0" allow="pedestrian delivery bicycle" speed="3.65" length="4.67" shape="685.15,1555.49 685.04,1554.05 685.43,1553.24 686.30,1553.07 687.67,1553.52"/>
    </edge>