<?xml version="1.0" encoding="UTF-8"?>

<!-- generated on Fri Dec 11 09:58:49 2020 by Eclipse SUMO duarouter Version 1.8.0
<configuration xmlns:xsi="http://www.w3.org/2001/XMLSchema-instance" xsi:noNamespaceSchemaLocation="http://sumo.dlr.de/xsd/duarouterConfiguration.xsd">

    <input>
        <net-file value="/usr/local/Cellar/sumo/1.8.0/share/sumo/2020-12-11-09-58-42/osm.net.xml"/>
        <route-files value="/usr/local/Cellar/sumo/1.8.0/share/sumo/2020-12-11-09-58-42/osm.passenger.trips.xml"/>
    </input>

    <output>
        <output-file value="/usr/local/Cellar/sumo/1.8.0/share/sumo/2020-12-11-09-58-42/osm.passenger.trips.xml.tmp"/>
        <write-trips value="true"/>
    </output>

    <time>
        <begin value="0"/>
        <end value="3600"/>
    </time>

    <report>
        <no-warnings value="true"/>
        <ignore-errors value="true"/>
        <no-step-log value="true"/>
    </report>

</configuration>
-->

<routes xmlns:xsi="http://www.w3.org/2001/XMLSchema-instance" xsi:noNamespaceSchemaLocation="http://sumo.dlr.de/xsd/routes_file.xsd">
    <vType id="veh_passenger" vClass="passenger"/>
    <trip id="veh0" type="veh_passenger" depart="0.00" departLane="best" departSpeed="max" from="226640532" to="-13418605"/>
    <trip id="veh1" type="veh_passenger" depart="3.02" departLane="best" from="-399313008#0" to="-398797114#0"/>
    <trip id="veh2" type="veh_passenger" depart="6.03" departLane="best" from="398797112" to="381454481#3"/>
    <trip id="veh3" type="veh_passenger" depart="9.05" departLane="best" from="60515914" to="-161930186#0"/>
    <trip id="veh4" type="veh_passenger" depart="12.07" departLane="best" departSpeed="max" from="13352133" to="-13443627#0"/>
    <trip id="veh6" type="veh_passenger" depart="18.10" departLane="best" departSpeed="max" from="-13396635" to="-398797106#1"/>
    <trip id="veh8" type="veh_passenger" depart="24.13" departLane="best" from="-398797113" to="173008056#0"/>
    <trip id="veh9" type="veh_passenger" depart="27.15" departLane="best" from="399313023" to="-13290084#1"/>
    <trip id="veh10" type="veh_passenger" depart="30.17" departLane="best" from="399313009#2" to="398797101#1"/>
    <trip id="veh11" type="veh_passenger" depart="33.18" departLane="best" departSpeed="max" from="-47971854#1" to="-24717535"/>
    <trip id="veh12" type="veh_passenger" depart="36.20" departLane="best" departSpeed="max" from="66681567" to="-517788547#1"/>
    <trip id="veh13" type="veh_passenger" depart="39.22" departLane="best" from="-161929822#0" to="-173007864#0"/>
    <trip id="veh14" type="veh_passenger" depart="42.23" departLane="best" departSpeed="max" from="405180824" to="185399306"/>
    <trip id="veh15" type="veh_passenger" depart="45.25" departLane="best" from="399313009#3" to="398797112"/>
    <trip id="veh16" type="veh_passenger" depart="48.27" departLane="best" departSpeed="max" from="161929506#0" to="716703964"/>
    <trip id="veh18" type="veh_passenger" depart="54.30" departLane="best" departSpeed="max" from="405170520" to="186076374#1"/>
    <trip id="veh19" type="veh_passenger" depart="57.31" departLane="best" from="45638572#0" to="172998575"/>
    <trip id="veh20" type="veh_passenger" depart="60.33" departLane="best" from="398797101#1" to="-161705377#3"/>
    <trip id="veh21" type="veh_passenger" depart="63.35" departLane="best" from="-398797116#1" to="-405170520"/>
    <trip id="veh22" type="veh_passenger" depart="66.36" departLane="best" from="-161708067#0" to="-398797116#3"/>
    <trip id="veh23" type="veh_passenger" depart="69.38" departLane="best" departSpeed="max" from="226640532" to="-607576338#2"/>
    <trip id="veh24" type="veh_passenger" depart="72.40" departLane="best" from="-607540363#2" to="-398797108#3"/>
    <trip id="veh25" type="veh_passenger" depart="75.41" departLane="best" departSpeed="max" from="-399312998#2" to="66681549#0"/>
    <trip id="veh27" type="veh_passenger" depart="81.45" departLane="best" from="-398797085" to="398797112"/>
    <trip id="veh28" type="veh_passenger" depart="84.46" departLane="best" from="-381454480#0" to="122900674"/>
    <trip id="veh29" type="veh_passenger" depart="87.48" departLane="best" departSpeed="max" from="866220885" to="24717296"/>
    <trip id="veh30" type="veh_passenger" depart="90.50" departLane="best" from="161929822#1" to="398797084#1"/>
    <trip id="veh31" type="veh_passenger" depart="93.51" departLane="best" from="405172281#2" to="399312996"/>
    <trip id="veh32" type="veh_passenger" depart="96.53" departLane="best" from="-398797116#2" to="-13455849#0"/>
    <trip id="veh33" type="veh_passenger" depart="99.55" departLane="best" departSpeed="max" from="-405180177" to="-399313006"/>
    <trip id="veh34" type="veh_passenger" depart="102.56" departLane="best" from="-398797108#5" to="66681549#0-AddedOnRampEdge"/>
    <trip id="veh35" type="veh_passenger" depart="105.58" departLane="best" from="517783745#0" to="-405180827"/>
    <trip id="veh36" type="veh_passenger" depart="108.60" departLane="best" from="607576344#1" to="13432739#1"/>
    <trip id="veh37" type="veh_passenger" depart="111.61" departLane="best" departSpeed="max" from="-399312998#2" to="-398816067"/>
    <trip id="veh38" type="veh_passenger" depart="114.63" departLane="best" from="161930186#1" to="-399312998#0"/>
    <trip id="veh39" type="veh_passenger" depart="117.65" departLane="best" from="185399253#1" to="517788547#1"/>
    <trip id="veh40" type="veh_passenger" depart="120.66" departLane="best" from="866283144-AddedOffRampEdge" to="148385714"/>
    <trip id="veh41" type="veh_passenger" depart="123.68" departLane="best" departSpeed="max" from="-161929507#1" to="-161705377#3"/>
    <trip id="veh43" type="veh_passenger" depart="129.71" departLane="best" from="399312994" to="13290084#1"/>
    <trip id="veh44" type="veh_passenger" depart="132.73" departLane="best" from="-161705377#6" to="122900674"/>
    <trip id="veh45" type="veh_passenger" depart="135.75" departLane="best" from="866283144-AddedOffRampEdge" to="161707983#1"/>
    <trip id="veh46" type="veh_passenger" depart="138.76" departLane="best" from="866215189" to="472809537#0"/>
    <trip id="veh47" type="veh_passenger" depart="141.78" departLane="best" departSpeed="max" from="-13353869#1" to="398797108#5"/>
    <trip id="veh48" type="veh_passenger" depart="144.80" departLane="best" from="381454481#1" to="161708003#1"/>
    <trip id="veh49" type="veh_passenger" depart="147.81" departLane="best" departSpeed="max" from="-399312998#2" to="24799753"/>
    <trip id="veh50" type="veh_passenger" depart="150.83" departLane="best" from="-173008056#2" to="13353869#1"/>
    <trip id="veh52" type="veh_passenger" depart="156.86" departLane="best" from="517783745#0" to="-399312998#0"/>
    <trip id="veh53" type="veh_passenger" depart="159.88" departLane="best" from="161705377#6" to="-398797085"/>
    <trip id="veh54" type="veh_passenger" depart="162.89" departLane="best" from="607576338#2" to="47971854#1"/>
    <trip id="veh56" type="veh_passenger" depart="168.93" departLane="best" departSpeed="max" from="185948986#0" to="-24717514"/>
    <trip id="veh57" type="veh_passenger" depart="171.94" departLane="best" departSpeed="max" from="398816067" to="161708057#0"/>
    <trip id="veh58" type="veh_passenger" depart="174.96" departLane="best" from="399312987#0" to="161707986#1"/>
    <trip id="veh59" type="veh_passenger" depart="177.98" departLane="best" from="-13255900" to="-472809537#1"/>
    <trip id="veh60" type="veh_passenger" depart="180.99" departLane="best" departSpeed="max" from="-13382169#1" to="607788623"/>
    <trip id="veh61" type="veh_passenger" depart="184.01" departLane="best" from="517783745#2" to="405172276"/>
    <trip id="veh62" type="veh_passenger" depart="187.03" departLane="best" from="-405172281#0" to="-161707990#1"/>
    <trip id="veh63" type="veh_passenger" depart="190.04" departLane="best" from="517783745#1" to="66681549#1"/>
    <trip id="veh65" type="veh_passenger" depart="196.08" departLane="best" from="-161707986#5" to="399312987#2"/>
    <trip id="veh66" type="veh_passenger" depart="199.09" departLane="best" departSpeed="max" from="398816067" to="-185948986#0"/>
    <trip id="veh68" type="veh_passenger" depart="205.13" departLane="best" departSpeed="max" from="-399312998#2" to="47971854#1"/>
    <trip id="veh69" type="veh_passenger" depart="208.14" departLane="best" departSpeed="max" from="13352133" to="-398797108#5"/>
    <trip id="veh70" type="veh_passenger" depart="211.16" departLane="best" from="161929506#2" to="398797112"/>
    <trip id="veh71" type="veh_passenger" depart="214.18" departLane="best" from="-398797106#3" to="-405180824"/>
    <trip id="veh72" type="veh_passenger" depart="217.19" departLane="best" from="866283144-AddedOffRampEdge" to="319147926#1"/>
    <trip id="veh73" type="veh_passenger" depart="220.21" departLane="best" from="13432739#1" to="156414161"/>
    <trip id="veh74" type="veh_passenger" depart="223.23" departLane="best" from="-185399253#2" to="-398797114#1"/>
    <trip id="veh75" type="veh_passenger" depart="226.24" departLane="best" from="-47971854#0" to="173007886"/>
    <trip id="veh76" type="veh_passenger" depart="229.26" departLane="best" from="-161707990#1" to="24716624"/>
    <trip id="veh77" type="veh_passenger" depart="232.28" departLane="best" from="-398797116#2" to="519210239"/>
    <trip id="veh78" type="veh_passenger" depart="235.29" departLane="best" from="45638571#4" to="-161708071#0"/>
    <trip id="veh79" type="veh_passenger" depart="238.31" departLane="best" from="-398814954" to="381454479"/>
    <trip id="veh80" type="veh_passenger" depart="241.33" departLane="best" from="-398797110#0" to="-185948986#1"/>
    <trip id="veh81" type="veh_passenger" depart="244.34" departLane="best" departSpeed="max" from="66668859" to="161929823#2"/>
    <trip id="veh83" type="veh_passenger" depart="250.38" departLane="best" from="399313009#3" to="-398797103"/>
    <trip id="veh84" type="veh_passenger" depart="253.39" departLane="best" from="-161929823#4" to="13353869#0"/>
    <trip id="veh85" type="veh_passenger" depart="256.41" departLane="best" departSpeed="max" from="13352133" to="13448240"/>
    <trip id="veh86" type="veh_passenger" depart="259.42" departLane="best" from="398797109" to="381454481#0"/>
    <trip id="veh87" type="veh_passenger" depart="262.44" departLane="best" departSpeed="max" from="866220885" to="-173008056#1"/>
    <trip id="veh89" type="veh_passenger" depart="268.47" departLane="best" from="45638572#0" to="-398816067"/>
    <trip id="veh90" type="veh_passenger" depart="271.49" departLane="best" from="-398797103" to="13396635"/>
    <trip id="veh91" type="veh_passenger" depart="274.51" departLane="best" departSpeed="max" from="13352133" to="-399313009#2"/>
    <trip id="veh92" type="veh_passenger" depart="277.52" departLane="best" departSpeed="max" from="13455849#0" to="472809537#1"/>
    <trip id="veh93" type="veh_passenger" depart="280.54" departLane="best" from="161929604#0" to="-161705377#6"/>
    <trip id="veh94" type="veh_passenger" depart="283.56" departLane="best" from="8585809#0" to="607788622"/>
    <trip id="veh96" type="veh_passenger" depart="289.59" departLane="best" from="122900682-AddedOffRampEdge" to="-161707993"/>
    <trip id="veh99" type="veh_passenger" depart="298.64" departLane="best" from="161929604#3" to="398797108#3"/>
    <trip id="veh100" type="veh_passenger" depart="301.66" departLane="best" from="-351686842#1" to="-405172275"/>
    <trip id="veh101" type="veh_passenger" depart="304.67" departLane="best" from="8585806" to="172998575"/>
    <trip id="veh102" type="veh_passenger" depart="307.69" departLane="best" from="161929506#4" to="398814954"/>
    <trip id="veh103" type="veh_passenger" depart="310.71" departLane="best" from="161705377#7" to="4082352#2"/>
    <trip id="veh104" type="veh_passenger" depart="313.72" departLane="best" departSpeed="max" from="-357850159" to="674108459"/>
    <trip id="veh105" type="veh_passenger" depart="316.74" departLane="best" from="-161708067#0" to="-398797096"/>
    <trip id="veh106" type="veh_passenger" depart="319.76" departLane="best" departSpeed="max" from="185948986#0" to="381454481#1"/>
    <trip id="veh107" type="veh_passenger" depart="322.77" departLane="best" from="-398810608" to="-185948937#1"/>
    <trip id="veh108" type="veh_passenger" depart="325.79" departLane="best" departSpeed="max" from="604086226" to="-398816067"/>
    <trip id="veh109" type="veh_passenger" depart="328.81" departLane="best" from="185948980" to="186076374#2"/>
    <trip id="veh110" type="veh_passenger" depart="331.82" departLane="best" from="13342618#1" to="173007864#1"/>
    <trip id="veh113" type="veh_passenger" depart="340.87" departLane="best" from="-161708003#2" to="-398797109"/>
    <trip id="veh115" type="veh_passenger" depart="346.91" departLane="best" from="517788547#0" to="47971858"/>
    <trip id="veh116" type="veh_passenger" depart="349.92" departLane="best" from="-607540363#1" to="-290223783"/>
    <trip id="veh117" type="veh_passenger" depart="352.94" departLane="best" from="405172276" to="398797105#0"/>
    <trip id="veh119" type="veh_passenger" depart="358.97" departLane="best" from="24717285" to="-13342618#0"/>
    <trip id="veh120" type="veh_passenger" depart="361.99" departLane="best" from="399313034" to="-405172278#0"/>
    <trip id="veh121" type="veh_passenger" depart="365.00" departLane="best" departSpeed="max" from="305932492#0" to="66681549#0-AddedOffRampEdge"/>
    <trip id="veh122" type="veh_passenger" depart="368.02" departLane="best" from="-186076379#3" to="-185399253#1"/>
    <trip id="veh124" type="veh_passenger" depart="374.05" departLane="best" from="-399313006" to="185399306-AddedOnRampEdge"/>
    <trip id="veh125" type="veh_passenger" depart="377.07" departLane="best" departSpeed="max" from="226640532" to="-399312998#0"/>
    <trip id="veh126" type="veh_passenger" depart="380.09" departLane="best" from="148385883" to="519210239"/>
    <trip id="veh127" type="veh_passenger" depart="383.10" departLane="best" from="405178822" to="-161930186#1"/>
    <trip id="veh128" type="veh_passenger" depart="386.12" departLane="best" departSpeed="max" from="13352133" to="-399313009#1"/>
    <trip id="veh129" type="veh_passenger" depart="389.14" departLane="best" from="-13290084#2" to="399312993"/>
    <trip id="veh130" type="veh_passenger" depart="392.15" departLane="best" departSpeed="max" from="226640532" to="-399312998#0"/>
    <trip id="veh131" type="veh_passenger" depart="395.17" departLane="best" from="13381394#2" to="-13352132#1"/>
    <trip id="veh132" type="veh_passenger" depart="398.19" departLane="best" from="-161708057#0" to="509274618#1"/>
    <trip id="veh133" type="veh_passenger" depart="401.20" departLane="best" departSpeed="max" from="607576338#0" to="161708071#1"/>
    <trip id="veh134" type="veh_passenger" depart="404.22" departLane="best" from="405172276" to="173007864#1"/>
    <trip id="veh135" type="veh_passenger" depart="407.24" departLane="best" departSpeed="max" from="-24717371" to="-185948986#0"/>
    <trip id="veh136" type="veh_passenger" depart="410.25" departLane="best" from="-405172281#0" to="519210239"/>
    <trip id="veh137" type="veh_passenger" depart="413.27" departLane="best" from="399312998#0" to="472809537#0"/>
    <trip id="veh138" type="veh_passenger" depart="416.29" departLane="best" from="607540365" to="-398797108#3"/>
    <trip id="veh139" type="veh_passenger" depart="419.30" departLane="best" from="-399312992#0" to="-173106035#0"/>
    <trip id="veh140" type="veh_passenger" depart="422.32" departLane="best" from="399312987#2" to="517783745#0"/>
    <trip id="veh142" type="veh_passenger" depart="428.35" departLane="best" from="472809537#1" to="761409465"/>
    <trip id="veh144" type="veh_passenger" depart="434.39" departLane="best" from="-45638571#6" to="607788623"/>
    <trip id="veh145" type="veh_passenger" depart="437.40" departLane="best" from="399313008#1" to="47971854#0"/>
    <trip id="veh147" type="veh_passenger" depart="443.44" departLane="best" from="399312992#0" to="-181020753#0"/>
    <trip id="veh148" type="veh_passenger" depart="446.45" departLane="best" from="47971860" to="45638572#0"/>
    <trip id="veh149" type="veh_passenger" depart="449.47" departLane="best" from="-398797114#0" to="399313037"/>
    <trip id="veh150" type="veh_passenger" depart="452.48" departLane="best" from="148284701-AddedOffRampEdge" to="-405172281#1"/>
    <trip id="veh151" type="veh_passenger" depart="455.50" departLane="best" departSpeed="max" from="-4082352#2" to="47971854#0"/>
    <trip id="veh152" type="veh_passenger" depart="458.52" departLane="best" from="80581116" to="-399313009#2"/>
    <trip id="veh153" type="veh_passenger" depart="461.53" departLane="best" departSpeed="max" from="226640532" to="122900685"/>
    <trip id="veh154" type="veh_passenger" depart="464.55" departLane="best" departSpeed="max" from="866220885" to="161708003#0"/>
    <trip id="veh155" type="veh_passenger" depart="467.57" departLane="best" departSpeed="max" from="66668859" to="-185399253#1"/>
    <trip id="veh156" type="veh_passenger" depart="470.58" departLane="best" from="8585809#2" to="-398797085"/>
    <trip id="veh157" type="veh_passenger" depart="473.60" departLane="best" departSpeed="max" from="66681567" to="-399312998#1"/>
    <trip id="veh158" type="veh_passenger" depart="476.62" departLane="best" departSpeed="max" from="-173007886" to="13353869#1"/>
    <trip id="veh159" type="veh_passenger" depart="479.63" departLane="best" from="398797109" to="-405180824"/>
    <trip id="veh160" type="veh_passenger" depart="482.65" departLane="best" departSpeed="max" from="185948986#0" to="148385716"/>
    <trip id="veh161" type="veh_passenger" depart="485.67" departLane="best" departSpeed="max" from="-79973085" to="161930300#1"/>
    <trip id="veh162" type="veh_passenger" depart="488.68" departLane="best" from="-399312998#0" to="398797106#1"/>
    <trip id="veh163" type="veh_passenger" depart="491.70" departLane="best" from="-13290084#0" to="607788622"/>
    <trip id="veh164" type="veh_passenger" depart="494.72" departLane="best" from="161929506#2" to="398797108#3"/>
    <trip id="veh165" type="veh_passenger" depart="497.73" departLane="best" from="398797115" to="381454480#0"/>
    <trip id="veh166" type="veh_passenger" depart="500.75" departLane="best" from="-517788547#0" to="-161708071#0"/>
    <trip id="veh167" type="veh_passenger" depart="503.77" departLane="best" from="305932492#1" to="-509274617"/>
    <trip id="veh168" type="veh_passenger" depart="506.78" departLane="best" from="398797107" to="-405172278#0"/>
    <trip id="veh169" type="veh_passenger" depart="509.80" departLane="best" from="-405172281#1" to="123561822"/>
    <trip id="veh171" type="veh_passenger" depart="515.83" departLane="best" from="-186070694" to="13255900"/>
    <trip id="veh173" type="veh_passenger" depart="521.87" departLane="best" from="607576337#2" to="186070694"/>
    <trip id="veh174" type="veh_passenger" depart="524.88" departLane="best" from="-405172275" to="161713703#0"/>
    <trip id="veh175" type="veh_passenger" depart="527.90" departLane="best" from="-13255900" to="-405170520"/>
    <trip id="veh176" type="veh_passenger" depart="530.92" departLane="best" from="13404147#0" to="172998575"/>
    <trip id="veh177" type="veh_passenger" depart="533.93" departLane="best" from="24717296" to="13443627#3"/>
    <trip id="veh179" type="veh_passenger" depart="539.97" departLane="best" from="399312998#0" to="-381454480#0"/>
    <trip id="veh180" type="veh_passenger" depart="542.98" departLane="best" departSpeed="max" from="226640532" to="-517788547#0"/>
    <trip id="veh181" type="veh_passenger" depart="546.00" departLane="best" from="351686842#2" to="-398797114#1"/>
    <trip id="veh182" type="veh_passenger" depart="549.02" departLane="best" from="-399312987#3" to="148252680-AddedOnRampEdge"/>
    <trip id="veh183" type="veh_passenger" depart="552.03" departLane="best" departSpeed="max" from="405180824" to="-161708071#0"/>
    <trip id="veh184" type="veh_passenger" depart="555.05" departLane="best" departSpeed="max" from="13284303#0" to="24716556"/>
    <trip id="veh185" type="veh_passenger" depart="558.06" departLane="best" from="-398797105#1" to="398797101#0"/>
    <trip id="veh186" type="veh_passenger" depart="561.08" departLane="best" from="161705377#1" to="-398816067"/>
    <trip id="veh187" type="veh_passenger" depart="564.10" departLane="best" departSpeed="max" from="24717535" to="-13290084#0"/>
    <trip id="veh188" type="veh_passenger" depart="567.11" departLane="best" from="398813411" to="399312993"/>
    <trip id="veh189" type="veh_passenger" depart="570.13" departLane="best" departSpeed="max" from="-173007886" to="13328677"/>
    <trip id="veh190" type="veh_passenger" depart="573.15" departLane="best" departSpeed="max" from="-398797094" to="674108459"/>
    <trip id="veh191" type="veh_passenger" depart="576.16" departLane="best" from="161708067#0" to="-161705377#6"/>
    <trip id="veh192" type="veh_passenger" depart="579.18" departLane="best" from="-399312992#0" to="405183745"/>
    <trip id="veh195" type="veh_passenger" depart="588.23" departLane="best" departSpeed="max" from="185948986#0" to="66681549#1"/>
    <trip id="veh196" type="veh_passenger" depart="591.25" departLane="best" departSpeed="max" from="604086226" to="185948986#1"/>
    <trip id="veh198" type="veh_passenger" depart="597.28" departLane="best" departSpeed="max" from="405170520" to="161713703#0"/>
    <trip id="veh199" type="veh_passenger" depart="600.30" departLane="best" from="607540363#2" to="398808226"/>
    <trip id="veh201" type="veh_passenger" depart="606.33" departLane="best" departSpeed="max" from="398816067" to="161705377#2"/>
    <trip id="veh202" type="veh_passenger" depart="609.35" departLane="best" departSpeed="max" from="226245460" to="-399313009#1"/>
    <trip id="veh203" type="veh_passenger" depart="612.36" departLane="best" from="-161708062#2" to="-405170520"/>
    <trip id="veh204" type="veh_passenger" depart="615.38" departLane="best" departSpeed="max" from="-399312998#2" to="-45638571#4"/>
    <trip id="veh205" type="veh_passenger" depart="618.40" departLane="best" from="161929506#3" to="-186076379#0"/>
    <trip id="veh206" type="veh_passenger" depart="621.41" departLane="best" from="-398797116#3" to="398797098"/>
    <trip id="veh207" type="veh_passenger" depart="624.43" departLane="best" from="398797103" to="-161708062#1"/>
    <trip id="veh209" type="veh_passenger" depart="630.46" departLane="best" from="13284303#1" to="-398797108#1"/>
    <trip id="veh210" type="veh_passenger" depart="633.48" departLane="best" from="13352132#1" to="519210239"/>
    <trip id="veh211" type="veh_passenger" depart="636.50" departLane="best" from="4082352#1" to="399312988#1"/>
    <trip id="veh212" type="veh_passenger" depart="639.51" departLane="best" from="405180827" to="66681549#1"/>
    <trip id="veh213" type="veh_passenger" depart="642.53" departLane="best" departSpeed="max" from="161929595" to="185399253#2"/>
    <trip id="veh214" type="veh_passenger" depart="645.55" departLane="best" departSpeed="max" from="13418605" to="-13435445#0"/>
    <trip id="veh215" type="veh_passenger" depart="648.56" departLane="best" from="-472809537#2" to="381456385"/>
    <trip id="veh217" type="veh_passenger" depart="654.59" departLane="best" from="186076380" to="-13432739#0"/>
    <trip id="veh219" type="veh_passenger" depart="660.63" departLane="best" from="-186076379#6" to="13443627#1"/>
    <trip id="veh220" type="veh_passenger" depart="663.64" departLane="best" from="-13457718#1" to="122900674"/>
    <trip id="veh221" type="veh_passenger" depart="666.66" departLane="best" departSpeed="max" from="398816067" to="122900674"/>
    <trip id="veh222" type="veh_passenger" depart="669.68" departLane="best" departSpeed="max" from="398813958" to="405172276"/>
    <trip id="veh223" type="veh_passenger" depart="672.69" departLane="best" from="-399312996" to="-161929823#0"/>
    <trip id="veh224" type="veh_passenger" depart="675.71" departLane="best" departSpeed="max" from="-13382169#1" to="161708057#0"/>
    <trip id="veh225" type="veh_passenger" depart="678.73" departLane="best" from="9173983" to="-607540364"/>
    <trip id="veh229" type="veh_passenger" depart="690.79" departLane="best" departSpeed="max" from="-13382169#1" to="-24717514"/>
    <trip id="veh230" type="veh_passenger" depart="693.81" departLane="best" from="-185948986#1" to="381454479"/>
    <trip id="veh231" type="veh_passenger" depart="696.83" departLane="best" from="161930300#1" to="-398797111"/>
    <trip id="veh232" type="veh_passenger" depart="699.84" departLane="best" from="398797098" to="399312992#0"/>
    <trip id="veh234" type="veh_passenger" depart="705.88" departLane="best" from="398797116#4" to="-185399253#0"/>
    <trip id="veh235" type="veh_passenger" depart="708.89" departLane="best" from="399313036" to="674108459"/>
    <trip id="veh236" type="veh_passenger" depart="711.91" departLane="best" departSpeed="max" from="-173007886" to="-13418605"/>
    <trip id="veh238" type="veh_passenger" depart="717.94" departLane="best" from="398797106#2" to="-161708071#1"/>
    <trip id="veh241" type="veh_passenger" depart="726.99" departLane="best" departSpeed="max" from="405180824" to="185399253#0"/>
    <trip id="veh242" type="veh_passenger" depart="730.01" departLane="best" from="399312987#3" to="-607540363#0"/>
    <trip id="veh243" type="veh_passenger" depart="733.03" departLane="best" from="161707986#2" to="-604086190"/>
    <trip id="veh244" type="veh_passenger" depart="736.04" departLane="best" departSpeed="max" from="-173007864#1" to="674108459"/>
    <trip id="veh245" type="veh_passenger" depart="739.06" departLane="best" departSpeed="max" from="226640532" to="405169158"/>
    <trip id="veh246" type="veh_passenger" depart="742.08" departLane="best" from="398797103" to="13381394#0"/>
    <trip id="veh247" type="veh_passenger" depart="745.09" departLane="best" from="398797111" to="674108459"/>
    <trip id="veh249" type="veh_passenger" depart="751.13" departLane="best" departSpeed="max" from="13418605" to="398797112"/>
    <trip id="veh250" type="veh_passenger" depart="754.14" departLane="best" departSpeed="max" from="-399312998#2" to="4082352#2"/>
    <trip id="veh251" type="veh_passenger" depart="757.16" departLane="best" departSpeed="max" from="405170520" to="-161930186#0"/>
    <trip id="veh252" type="veh_passenger" depart="760.17" departLane="best" from="517788547#1" to="-398816067"/>
    <trip id="veh253" type="veh_passenger" depart="763.19" departLane="best" from="148385400" to="185948937#1"/>
    <trip id="veh254" type="veh_passenger" depart="766.21" departLane="best" departSpeed="max" from="-716703964" to="-13435445#0"/>
    <trip id="veh255" type="veh_passenger" depart="769.22" departLane="best" from="405180825" to="-398797093#0"/>
    <trip id="veh256" type="veh_passenger" depart="772.24" departLane="best" from="-398797109" to="399313020"/>
    <trip id="veh257" type="veh_passenger" depart="775.26" departLane="best" departSpeed="max" from="-47971854#1" to="47971860"/>
    <trip id="veh258" type="veh_passenger" depart="778.27" departLane="best" from="398797098" to="-399313009#1"/>
    <trip id="veh259" type="veh_passenger" depart="781.29" departLane="best" from="-13352134" to="66681549#1"/>
    <trip id="veh260" type="veh_passenger" depart="784.31" departLane="best" departSpeed="max" from="-161713703#1" to="398797108#3"/>
    <trip id="veh261" type="veh_passenger" depart="787.32" departLane="best" from="148385883" to="399312987#0"/>
    <trip id="veh262" type="veh_passenger" depart="790.34" departLane="best" from="398797084#1" to="305932492#1"/>
    <trip id="veh263" type="veh_passenger" depart="793.36" departLane="best" from="156414142" to="399313009#1"/>
    <trip id="veh264" type="veh_passenger" depart="796.37" departLane="best" from="-161929822#0" to="-398797113"/>
    <trip id="veh265" type="veh_passenger" depart="799.39" departLane="best" from="398797085" to="-405172281#2"/>
    <trip id="veh266" type="veh_passenger" depart="802.41" departLane="best" departSpeed="max" from="161929506#0" to="13328677"/>
    <trip id="veh267" type="veh_passenger" depart="805.42" departLane="best" from="398797116#3" to="-517783745#0"/>
    <trip id="veh268" type="veh_passenger" depart="808.44" departLane="best" from="398797101#0" to="-399313009#0"/>
    <trip id="veh269" type="veh_passenger" depart="811.46" departLane="best" from="-399312996" to="-185948986#0"/>
    <trip id="veh270" type="veh_passenger" depart="814.47" departLane="best" from="-398797105#0" to="-185948937#1"/>
    <trip id="veh271" type="veh_passenger" depart="817.49" departLane="best" departSpeed="max" from="161929506#0" to="399312987#2"/>
    <trip id="veh272" type="veh_passenger" depart="820.51" departLane="best" from="-398797096" to="-398797110#0"/>
    <trip id="veh274" type="veh_passenger" depart="826.54" departLane="best" departSpeed="max" from="866220885" to="161705377#5"/>
    <trip id="veh275" type="veh_passenger" depart="829.56" departLane="best" from="-399313009#2" to="-173106035#0"/>
    <trip id="veh276" type="veh_passenger" depart="832.57" departLane="best" from="-398797105#1" to="-398797116#0"/>
    <trip id="veh277" type="veh_passenger" depart="835.59" departLane="best" departSpeed="max" from="-398797094" to="-13352134"/>
    <trip id="veh278" type="veh_passenger" depart="838.61" departLane="best" departSpeed="max" from="161929506#0" to="-399313009#1"/>
    <trip id="veh280" type="veh_passenger" depart="844.64" departLane="best" from="398797096" to="-185948986#0"/>
    <trip id="veh282" type="veh_passenger" depart="850.67" departLane="best" departSpeed="max" from="148385562" to="13382169#1"/>
    <trip id="veh283" type="veh_passenger" depart="853.69" departLane="best" from="-398797096" to="-161705377#6"/>